ChemDiv-D420-6105 MCULE-5109552643 MolPort-007-705-692


 33 36  0  0  0  0  0  0  0  0999 V2000
   17.2944  -10.4458   13.7261 C   0  0  0  0  0  0  0  0  0  0  0  0
   17.9584  -10.3345   12.5580 N   0  0  0  0  0  0  0  0  0  0  0  0
   16.9996   -9.8329   11.7494 C   0  0  0  0  0  0  0  0  0  0  0  0
   15.8294   -9.6555   12.3954 N   0  0  0  0  0  0  0  0  0  0  0  0
   16.0532  -10.0460   13.6127 O   0  0  0  0  0  0  0  0  0  0  0  0
   17.2225   -9.5186   10.3216 C   0  0  0  0  0  0  0  0  0  0  0  0
   16.3182   -9.9024    9.3069 C   0  0  0  0  0  0  0  0  0  0  0  0
   15.1575  -10.6049    9.6086 O   0  0  0  0  0  0  0  0  0  0  0  0
   16.5749   -9.5854    8.0082 N   0  0  0  0  0  0  0  0  0  0  0  0
   17.6894   -8.9006    7.6428 C   0  0  0  0  0  0  0  0  0  0  0  0
   17.9186   -8.5929    6.2987 C   0  0  0  0  0  0  0  0  0  0  0  0
   19.0687   -7.8866    5.9306 C   0  0  0  0  0  0  0  0  0  0  0  0
   19.3121   -7.5594    4.5017 C   0  0  0  0  0  0  0  0  0  0  0  0
   19.9905   -7.4876    6.9052 C   0  0  0  0  0  0  0  0  0  0  0  0
   19.7663   -7.7927    8.2517 C   0  0  0  0  0  0  0  0  0  0  0  0
   18.6184   -8.4977    8.6224 C   0  0  0  0  0  0  0  0  0  0  0  0
   18.3758   -8.8116    9.9574 C   0  0  0  0  0  0  0  0  0  0  0  0
   14.9647  -10.8316   10.4971 H   0  0  0  0  0  0  0  0  0  0  0  0
   17.8818  -10.9620   15.0042 C   0  0  0  0  0  0  0  0  0  0  0  0
   17.1210  -10.4912   16.2402 C   0  0  0  0  0  0  0  0  0  0  0  0
   17.4331   -9.0363   16.5676 C   0  0  0  0  0  0  0  0  0  0  0  0
   15.8373   -8.2315   18.3501 N   0  0  0  0  0  0  0  0  0  0  0  0
   16.1974   -8.3036   16.9642 C   0  0  0  0  0  0  0  0  0  0  0  0
   15.4780   -7.7793   16.0732 O   0  0  0  0  0  0  0  0  0  0  0  0
   16.4465   -8.6692   18.9877 H   0  0  0  0  0  0  0  0  0  0  0  0
   13.5588   -6.6533   20.8533 C   0  0  0  0  0  0  0  0  0  0  0  0
   12.4559   -6.3296   20.0571 C   0  0  0  0  0  0  0  0  0  0  0  0
   12.4590   -6.6301   18.6927 C   0  0  0  0  0  0  0  0  0  0  0  0
   13.5675   -7.2567   18.1179 C   0  0  0  0  0  0  0  0  0  0  0  0
   14.6816   -7.5877   18.9035 C   0  0  0  0  0  0  0  0  0  0  0  0
   14.6700   -7.2833   20.2687 C   0  0  0  0  0  0  0  0  0  0  0  0
   14.5204   -5.5430   22.8434 C   0  0  0  0  0  0  0  0  0  0  0  0
   13.5259   -6.3401   22.2148 O   0  0  0  0  0  0  0  0  0  0  0  0
 32 33  1  0  0  0
 33 26  1  0  0  0
 26 27  2  0  0  0
 27 28  1  0  0  0
 28 29  2  0  0  0
 29 30  1  0  0  0
 30 22  1  0  0  0
 30 31  2  0  0  0
 22 23  1  0  0  0
 23 24  2  0  0  0
 23 21  1  0  0  0
 21 20  1  0  0  0
 20 19  1  0  0  0
 19  1  1  0  0  0
  1  2  2  0  0  0
  2  3  1  0  0  0
  3  4  2  0  0  0
  3  6  1  0  0  0
  4  5  1  0  0  0
  5  1  1  0  0  0
  6  7  2  0  0  0
  7  8  1  0  0  0
  7  9  1  0  0  0
  9 10  2  0  0  0
 10 11  1  0  0  0
 11 12  2  0  0  0
 12 13  1  0  0  0
 12 14  1  0  0  0
 14 15  2  0  0  0
 15 16  1  0  0  0
 16 17  2  0  0  0
 16 10  1  0  0  0
 17  6  1  0  0  0
 31 26  1  0  0  0
 22 25  1  0  0  0
  8 18  1  0  0  0
M  END
>  <minimizedAffinity>
-11.47568

>  <minimizedRMSD>
1.63185

$$$$
ChemDiv-D420-6205 MCULE-4136759361 MolPort-007-705-712


 33 36  0  0  0  0  0  0  0  0999 V2000
   17.1301  -10.1931   13.7432 C   0  0  0  0  0  0  0  0  0  0  0  0
   17.8424  -10.0638   12.6090 N   0  0  0  0  0  0  0  0  0  0  0  0
   16.8753   -9.7406   11.7221 C   0  0  0  0  0  0  0  0  0  0  0  0
   15.6554   -9.6821   12.2949 N   0  0  0  0  0  0  0  0  0  0  0  0
   15.8557   -9.9687   13.5445 O   0  0  0  0  0  0  0  0  0  0  0  0
   17.1390   -9.4817   10.2899 C   0  0  0  0  0  0  0  0  0  0  0  0
   16.2909   -9.9506    9.2624 C   0  0  0  0  0  0  0  0  0  0  0  0
   15.1507  -10.6895    9.5547 O   0  0  0  0  0  0  0  0  0  0  0  0
   16.5829   -9.6815    7.9604 N   0  0  0  0  0  0  0  0  0  0  0  0
   17.6804   -8.9653    7.6036 C   0  0  0  0  0  0  0  0  0  0  0  0
   17.9473   -8.7091    6.2557 C   0  0  0  0  0  0  0  0  0  0  0  0
   19.0799   -7.9706    5.8965 C   0  0  0  0  0  0  0  0  0  0  0  0
   19.3633   -7.6982    4.4636 C   0  0  0  0  0  0  0  0  0  0  0  0
   19.9463   -7.4877    6.8837 C   0  0  0  0  0  0  0  0  0  0  0  0
   19.6842   -7.7409    8.2342 C   0  0  0  0  0  0  0  0  0  0  0  0
   18.5538   -8.4783    8.5960 C   0  0  0  0  0  0  0  0  0  0  0  0
   18.2744   -8.7418    9.9347 C   0  0  0  0  0  0  0  0  0  0  0  0
   14.9340  -10.8842   10.4453 H   0  0  0  0  0  0  0  0  0  0  0  0
   17.7272  -10.5512   15.0621 C   0  0  0  0  0  0  0  0  0  0  0  0
   16.7273  -10.3311   16.1852 C   0  0  0  0  0  0  0  0  0  0  0  0
   17.1362   -9.1395   17.0337 C   0  0  0  0  0  0  0  0  0  0  0  0
   15.4840   -8.0300   18.5813 N   0  0  0  0  0  0  0  0  0  0  0  0
   15.9639   -8.2514   17.2535 C   0  0  0  0  0  0  0  0  0  0  0  0
   15.3901   -7.7198   16.2656 O   0  0  0  0  0  0  0  0  0  0  0  0
   15.9658   -8.4467   19.3320 H   0  0  0  0  0  0  0  0  0  0  0  0
   13.0460   -7.9209   18.4135 C   0  0  0  0  0  0  0  0  0  0  0  0
   14.3122   -7.2139   18.8720 C   0  0  0  0  0  0  0  0  0  0  0  0
   14.2468   -6.9071   20.3339 C   0  0  0  0  0  0  0  0  0  0  0  0
   15.3520   -7.1229   21.1719 C   0  0  0  0  0  0  0  0  0  0  0  0
   15.2691   -6.8226   22.5347 C   0  0  0  0  0  0  0  0  0  0  0  0
   14.0841   -6.3045   23.0652 C   0  0  0  0  0  0  0  0  0  0  0  0
   12.9821   -6.0860   22.2333 C   0  0  0  0  0  0  0  0  0  0  0  0
   13.0639   -6.3862   20.8701 C   0  0  0  0  0  0  0  0  0  0  0  0
 27 26  1  0  0  0
 27 22  1  0  0  0
 27 28  1  0  0  0
 22 23  1  0  0  0
 23 24  2  0  0  0
 23 21  1  0  0  0
 21 20  1  0  0  0
 20 19  1  0  0  0
 19  1  1  0  0  0
  1  2  2  0  0  0
  2  3  1  0  0  0
  3  4  2  0  0  0
  3  6  1  0  0  0
  4  5  1  0  0  0
  5  1  1  0  0  0
  6  7  2  0  0  0
  7  8  1  0  0  0
  7  9  1  0  0  0
  9 10  2  0  0  0
 10 11  1  0  0  0
 11 12  2  0  0  0
 12 13  1  0  0  0
 12 14  1  0  0  0
 14 15  2  0  0  0
 15 16  1  0  0  0
 16 17  2  0  0  0
 16 10  1  0  0  0
 17  6  1  0  0  0
 28 29  2  0  0  0
 29 30  1  0  0  0
 30 31  2  0  0  0
 31 32  1  0  0  0
 32 33  2  0  0  0
 33 28  1  0  0  0
 22 25  1  0  0  0
  8 18  1  0  0  0
M  END
>  <minimizedAffinity>
-11.28093

>  <minimizedRMSD>
1.63104

$$$$
ChemDiv-D420-6100 MCULE-9657825533 MolPort-007-705-687


 31 34  0  0  0  0  0  0  0  0999 V2000
   17.0870   -9.6346   11.5335 C   0  0  0  0  0  0  0  0  0  0  0  0
   15.8812   -9.8700   12.0907 N   0  0  0  0  0  0  0  0  0  0  0  0
   16.1168  -10.0053   13.3596 O   0  0  0  0  0  0  0  0  0  0  0  0
   17.3984   -9.8656   13.5839 C   0  0  0  0  0  0  0  0  0  0  0  0
   18.0804   -9.6211   12.4497 N   0  0  0  0  0  0  0  0  0  0  0  0
   19.3468   -7.7371    4.1620 C   0  0  0  0  0  0  0  0  0  0  0  0
   19.1041   -7.9745    5.6086 C   0  0  0  0  0  0  0  0  0  0  0  0
   18.0034   -8.7360    6.0156 C   0  0  0  0  0  0  0  0  0  0  0  0
   17.7749   -8.9594    7.3763 C   0  0  0  0  0  0  0  0  0  0  0  0
   16.7085   -9.6976    7.7795 N   0  0  0  0  0  0  0  0  0  0  0  0
   16.4542   -9.9360    9.0954 C   0  0  0  0  0  0  0  0  0  0  0  0
   15.3444  -10.7003    9.4359 O   0  0  0  0  0  0  0  0  0  0  0  0
   17.3103   -9.4110   10.0887 C   0  0  0  0  0  0  0  0  0  0  0  0
   18.4138   -8.6478    9.6855 C   0  0  0  0  0  0  0  0  0  0  0  0
   18.6548   -8.4164    8.3335 C   0  0  0  0  0  0  0  0  0  0  0  0
   19.7532   -7.6563    7.9237 C   0  0  0  0  0  0  0  0  0  0  0  0
   19.9770   -7.4359    6.5606 C   0  0  0  0  0  0  0  0  0  0  0  0
   14.7866  -11.0413    8.7646 H   0  0  0  0  0  0  0  0  0  0  0  0
   18.0258   -9.9363   14.9345 C   0  0  0  0  0  0  0  0  0  0  0  0
   17.4507   -8.8681   15.8495 C   0  0  0  0  0  0  0  0  0  0  0  0
   16.4377   -9.4751   16.8056 C   0  0  0  0  0  0  0  0  0  0  0  0
   15.6638   -8.3997   17.4841 C   0  0  0  0  0  0  0  0  0  0  0  0
   15.1413   -7.4882   16.7898 O   0  0  0  0  0  0  0  0  0  0  0  0
   15.5122   -8.4282   18.9101 N   0  0  0  0  0  0  0  0  0  0  0  0
   15.9330   -9.1818   19.3836 H   0  0  0  0  0  0  0  0  0  0  0  0
   14.8111   -7.4727   19.7176 C   0  0  0  0  0  0  0  0  0  0  0  0
   15.3589   -7.1029   20.9512 C   0  0  0  0  0  0  0  0  0  0  0  0
   14.7055   -6.1732   21.7658 C   0  0  0  0  0  0  0  0  0  0  0  0
   13.4977   -5.6065   21.3499 C   0  0  0  0  0  0  0  0  0  0  0  0
   12.9437   -5.9693   20.1195 C   0  0  0  0  0  0  0  0  0  0  0  0
   13.5980   -6.8990   19.3060 C   0  0  0  0  0  0  0  0  0  0  0  0
  6  7  1  0  0  0
  7  8  2  0  0  0
  8  9  1  0  0  0
  9 10  2  0  0  0
 10 11  1  0  0  0
 11 12  1  0  0  0
 11 13  2  0  0  0
 13 14  1  0  0  0
 13  1  1  0  0  0
 14 15  2  0  0  0
 15 16  1  0  0  0
 15  9  1  0  0  0
 16 17  2  0  0  0
 17  7  1  0  0  0
  1  2  2  0  0  0
  2  3  1  0  0  0
  3  4  1  0  0  0
  4 19  1  0  0  0
  4  5  2  0  0  0
 19 20  1  0  0  0
 20 21  1  0  0  0
 21 22  1  0  0  0
 22 23  2  0  0  0
 22 24  1  0  0  0
 24 26  1  0  0  0
 26 27  2  0  0  0
 27 28  1  0  0  0
 28 29  2  0  0  0
 29 30  1  0  0  0
 30 31  2  0  0  0
 31 26  1  0  0  0
  5  1  1  0  0  0
 12 18  1  0  0  0
 24 25  1  0  0  0
M  END
>  <minimizedAffinity>
-11.10828

>  <minimizedRMSD>
1.27349

$$$$
ChemDiv-D420-6099 MCULE-8606986361 MolPort-007-705-686


 31 34  0  0  0  0  0  0  0  0999 V2000
   17.0023   -9.6955   11.6567 C   0  0  0  0  0  0  0  0  0  0  0  0
   15.7875   -9.7449   12.2412 N   0  0  0  0  0  0  0  0  0  0  0  0
   16.0263   -9.9709   13.4965 O   0  0  0  0  0  0  0  0  0  0  0  0
   17.3179  -10.0612   13.6866 C   0  0  0  0  0  0  0  0  0  0  0  0
   18.0046   -9.8896   12.5421 N   0  0  0  0  0  0  0  0  0  0  0  0
   19.2848   -7.7324    4.3093 C   0  0  0  0  0  0  0  0  0  0  0  0
   19.0410   -7.9879    5.7526 C   0  0  0  0  0  0  0  0  0  0  0  0
   17.9226   -8.7279    6.1512 C   0  0  0  0  0  0  0  0  0  0  0  0
   17.6931   -8.9683    7.5087 C   0  0  0  0  0  0  0  0  0  0  0  0
   16.6097   -9.6859    7.9036 N   0  0  0  0  0  0  0  0  0  0  0  0
   16.3539   -9.9399    9.2163 C   0  0  0  0  0  0  0  0  0  0  0  0
   15.2262  -10.6813    9.5481 O   0  0  0  0  0  0  0  0  0  0  0  0
   17.2263   -9.4534   10.2149 C   0  0  0  0  0  0  0  0  0  0  0  0
   18.3474   -8.7118    9.8203 C   0  0  0  0  0  0  0  0  0  0  0  0
   18.5897   -8.4639    8.4714 C   0  0  0  0  0  0  0  0  0  0  0  0
   19.7059   -7.7252    8.0703 C   0  0  0  0  0  0  0  0  0  0  0  0
   19.9305   -7.4877    6.7103 C   0  0  0  0  0  0  0  0  0  0  0  0
   14.6576  -10.9967    8.8733 H   0  0  0  0  0  0  0  0  0  0  0  0
   17.9555  -10.2936   15.0141 C   0  0  0  0  0  0  0  0  0  0  0  0
   17.6881   -9.1263   15.9496 C   0  0  0  0  0  0  0  0  0  0  0  0
   16.6354   -9.4998   16.9797 C   0  0  0  0  0  0  0  0  0  0  0  0
   15.7468   -8.3370   17.2509 C   0  0  0  0  0  0  0  0  0  0  0  0
   15.3722   -7.6070   16.2949 O   0  0  0  0  0  0  0  0  0  0  0  0
   15.3172   -8.0638   18.5874 N   0  0  0  0  0  0  0  0  0  0  0  0
   15.6426   -8.6422   19.3146 H   0  0  0  0  0  0  0  0  0  0  0  0
   14.4190   -6.9665   18.9182 C   0  0  0  0  0  0  0  0  0  0  0  0
   13.0021   -7.3759   18.7014 C   0  0  0  0  0  0  0  0  0  0  0  0
   12.1322   -6.7785   17.8175 C   0  0  0  0  0  0  0  0  0  0  0  0
   10.9534   -7.4918   17.9506 C   0  0  0  0  0  0  0  0  0  0  0  0
   11.1873   -8.4711   18.9018 C   0  0  0  0  0  0  0  0  0  0  0  0
   12.4238   -8.3687   19.3256 O   0  0  0  0  0  0  0  0  0  0  0  0
  6  7  1  0  0  0
  7  8  2  0  0  0
  8  9  1  0  0  0
  9 10  2  0  0  0
 10 11  1  0  0  0
 11 12  1  0  0  0
 11 13  2  0  0  0
 13 14  1  0  0  0
 13  1  1  0  0  0
 14 15  2  0  0  0
 15 16  1  0  0  0
 15  9  1  0  0  0
 16 17  2  0  0  0
 17  7  1  0  0  0
  1  2  2  0  0  0
  2  3  1  0  0  0
  3  4  1  0  0  0
  4 19  1  0  0  0
  4  5  2  0  0  0
 19 20  1  0  0  0
 20 21  1  0  0  0
 21 22  1  0  0  0
 22 23  2  0  0  0
 22 24  1  0  0  0
 24 26  1  0  0  0
 26 27  1  0  0  0
 27 28  2  0  0  0
 28 29  1  0  0  0
 29 30  2  0  0  0
 30 31  1  0  0  0
 31 27  1  0  0  0
  5  1  1  0  0  0
 12 18  1  0  0  0
 24 25  1  0  0  0
M  END
>  <minimizedAffinity>
-11.03508

>  <minimizedRMSD>
1.33853

$$$$
ChemDiv-D420-6210 MCULE-5909642081 MolPort-010-645-042


 31 34  0  0  0  0  0  0  0  0999 V2000
   16.9857   -9.6107   11.5622 C   0  0  0  0  0  0  0  0  0  0  0  0
   15.7690   -9.8418   12.0967 N   0  0  0  0  0  0  0  0  0  0  0  0
   15.9784   -9.9634   13.3716 O   0  0  0  0  0  0  0  0  0  0  0  0
   17.2550   -9.8195   13.6208 C   0  0  0  0  0  0  0  0  0  0  0  0
   17.9600   -9.5861   12.4985 N   0  0  0  0  0  0  0  0  0  0  0  0
   17.2386   -9.4020   10.1199 C   0  0  0  0  0  0  0  0  0  0  0  0
   18.3476   -8.6391    9.7315 C   0  0  0  0  0  0  0  0  0  0  0  0
   18.6163   -8.4216    8.3825 C   0  0  0  0  0  0  0  0  0  0  0  0
   19.7205   -7.6618    7.9877 C   0  0  0  0  0  0  0  0  0  0  0  0
   19.9720   -7.4555    6.6273 C   0  0  0  0  0  0  0  0  0  0  0  0
   19.1213   -8.0078    5.6630 C   0  0  0  0  0  0  0  0  0  0  0  0
   18.0150   -8.7690    6.0552 C   0  0  0  0  0  0  0  0  0  0  0  0
   17.7587   -8.9785    7.4132 C   0  0  0  0  0  0  0  0  0  0  0  0
   16.6867   -9.7162    7.8020 N   0  0  0  0  0  0  0  0  0  0  0  0
   16.4057   -9.9412    9.1147 C   0  0  0  0  0  0  0  0  0  0  0  0
   15.2916  -10.7059    9.4401 O   0  0  0  0  0  0  0  0  0  0  0  0
   19.3936   -7.7853    4.2193 C   0  0  0  0  0  0  0  0  0  0  0  0
   14.7493  -11.0563    8.7610 H   0  0  0  0  0  0  0  0  0  0  0  0
   17.8543   -9.8749   14.9849 C   0  0  0  0  0  0  0  0  0  0  0  0
   17.2566   -8.8001   15.8773 C   0  0  0  0  0  0  0  0  0  0  0  0
   16.2097   -9.3980   16.8026 C   0  0  0  0  0  0  0  0  0  0  0  0
   15.5428   -8.3234   17.5880 C   0  0  0  0  0  0  0  0  0  0  0  0
   14.9819   -7.3666   16.9890 O   0  0  0  0  0  0  0  0  0  0  0  0
   15.5352   -8.4045   19.0167 N   0  0  0  0  0  0  0  0  0  0  0  0
   15.9781   -9.1800   19.4310 H   0  0  0  0  0  0  0  0  0  0  0  0
   14.9323   -7.4433   19.8881 C   0  0  0  0  0  0  0  0  0  0  0  0
   15.6116   -6.9286   21.3286 S   0  0  0  0  0  0  0  0  0  0  0  0
   14.3500   -5.8732   21.6994 C   0  0  0  0  0  0  0  0  0  0  0  0
   13.4321   -5.9734   20.6541 C   0  0  0  0  0  0  0  0  0  0  0  0
   12.1742   -5.1823   20.6275 C   0  0  0  0  0  0  0  0  0  0  0  0
   13.7504   -6.8382   19.6537 N   0  0  0  0  0  0  0  0  0  0  0  0
  1  2  2  0  0  0
  2  3  1  0  0  0
  3  4  1  0  0  0
  4 19  1  0  0  0
 19 20  1  0  0  0
 20 21  1  0  0  0
 21 22  1  0  0  0
 22 23  2  0  0  0
 22 24  1  0  0  0
 24 26  1  0  0  0
 26 27  1  0  0  0
 27 28  1  0  0  0
 28 29  2  0  0  0
 29 30  1  0  0  0
 29 31  1  0  0  0
  4  5  2  0  0  0
  1  6  1  0  0  0
  6  7  2  0  0  0
  7  8  1  0  0  0
  8  9  2  0  0  0
  9 10  1  0  0  0
 10 11  2  0  0  0
 11 12  1  0  0  0
 12 13  2  0  0  0
 13 14  1  0  0  0
 14 15  2  0  0  0
 15 16  1  0  0  0
 11 17  1  0  0  0
  5  1  1  0  0  0
 15  6  1  0  0  0
 31 26  2  0  0  0
 13  8  1  0  0  0
 24 25  1  0  0  0
 16 18  1  0  0  0
M  END
>  <minimizedAffinity>
-10.81172

>  <minimizedRMSD>
1.02718

$$$$
ChemDiv-D420-6453 MCULE-4692898055 MolPort-010-713-835


 32 35  0  0  0  0  0  0  0  0999 V2000
   17.2705   -9.6717   11.4744 C   0  0  0  0  0  0  0  0  0  0  0  0
   16.1065   -9.8136   12.1413 N   0  0  0  0  0  0  0  0  0  0  0  0
   16.4469   -9.9818   13.3821 O   0  0  0  0  0  0  0  0  0  0  0  0
   17.7511   -9.9500   13.4858 C   0  0  0  0  0  0  0  0  0  0  0  0
   18.3424   -9.7492   12.2936 N   0  0  0  0  0  0  0  0  0  0  0  0
   21.0104   -6.8960    5.7203 C   0  0  0  0  0  0  0  0  0  0  0  0
   19.8360   -7.6276    6.2620 C   0  0  0  0  0  0  0  0  0  0  0  0
   19.7232   -7.8447    7.6393 C   0  0  0  0  0  0  0  0  0  0  0  0
   18.6184   -8.5344    8.1464 C   0  0  0  0  0  0  0  0  0  0  0  0
   18.4865   -8.7599    9.5144 C   0  0  0  0  0  0  0  0  0  0  0  0
   17.3760   -9.4521   10.0154 C   0  0  0  0  0  0  0  0  0  0  0  0
   16.4001   -9.9119    9.1036 C   0  0  0  0  0  0  0  0  0  0  0  0
   15.2774  -10.6040    9.5427 O   0  0  0  0  0  0  0  0  0  0  0  0
   16.5484   -9.6793    7.7706 N   0  0  0  0  0  0  0  0  0  0  0  0
   17.6205   -9.0099    7.2728 C   0  0  0  0  0  0  0  0  0  0  0  0
   17.7381   -8.7903    5.8974 C   0  0  0  0  0  0  0  0  0  0  0  0
   18.8456   -8.0996    5.3931 C   0  0  0  0  0  0  0  0  0  0  0  0
   15.1590  -10.7731   10.4567 H   0  0  0  0  0  0  0  0  0  0  0  0
   18.4935  -10.0871   14.7716 C   0  0  0  0  0  0  0  0  0  0  0  0
   18.1215   -8.9661   15.7276 C   0  0  0  0  0  0  0  0  0  0  0  0
   17.2219   -9.4890   16.8350 C   0  0  0  0  0  0  0  0  0  0  0  0
   16.1151   -8.5283   17.0963 C   0  0  0  0  0  0  0  0  0  0  0  0
   15.6392   -7.8645   16.1377 O   0  0  0  0  0  0  0  0  0  0  0  0
   15.5979   -8.3892   18.4270 N   0  0  0  0  0  0  0  0  0  0  0  0
   16.0108   -8.9521   19.1211 H   0  0  0  0  0  0  0  0  0  0  0  0
   14.5423   -7.5163   18.8526 C   0  0  0  0  0  0  0  0  0  0  0  0
   14.5830   -7.0010   20.1122 N   0  0  0  0  0  0  0  0  0  0  0  0
   13.6161   -6.1667   20.5808 C   0  0  0  0  0  0  0  0  0  0  0  0
   13.7035   -5.6321   21.9644 C   0  0  0  0  0  0  0  0  0  0  0  0
   12.5399   -5.8136   19.7639 C   0  0  0  0  0  0  0  0  0  0  0  0
   12.4725   -6.3265   18.4681 C   0  0  0  0  0  0  0  0  0  0  0  0
   13.4749   -7.1809   18.0068 C   0  0  0  0  0  0  0  0  0  0  0  0
  6  7  1  0  0  0
  7  8  2  0  0  0
  8  9  1  0  0  0
  9 10  2  0  0  0
 10 11  1  0  0  0
 11  1  1  0  0  0
 11 12  2  0  0  0
  1  2  2  0  0  0
  2  3  1  0  0  0
  3  4  1  0  0  0
  4 19  1  0  0  0
  4  5  2  0  0  0
 19 20  1  0  0  0
 20 21  1  0  0  0
 21 22  1  0  0  0
 22 23  2  0  0  0
 22 24  1  0  0  0
 24 26  1  0  0  0
 26 27  2  0  0  0
 27 28  1  0  0  0
 28 29  1  0  0  0
 28 30  2  0  0  0
 30 31  1  0  0  0
 31 32  2  0  0  0
 32 26  1  0  0  0
  5  1  1  0  0  0
 12 13  1  0  0  0
 12 14  1  0  0  0
 14 15  2  0  0  0
 15 16  1  0  0  0
 15  9  1  0  0  0
 16 17  2  0  0  0
 17  7  1  0  0  0
 24 25  1  0  0  0
 13 18  1  0  0  0
M  END
>  <minimizedAffinity>
-10.80663

>  <minimizedRMSD>
1.73156

$$$$
ChemDiv-D420-6371 MCULE-3824416304 MolPort-007-705-715


 32 35  0  0  0  0  0  0  0  0999 V2000
   17.2901   -9.6770   11.4537 C   0  0  0  0  0  0  0  0  0  0  0  0
   16.1282   -9.8208   12.1237 N   0  0  0  0  0  0  0  0  0  0  0  0
   16.4725   -9.9916   13.3631 O   0  0  0  0  0  0  0  0  0  0  0  0
   17.7767   -9.9595   13.4631 C   0  0  0  0  0  0  0  0  0  0  0  0
   18.3645   -9.7569   12.2695 N   0  0  0  0  0  0  0  0  0  0  0  0
   21.0120   -6.8822    5.6984 C   0  0  0  0  0  0  0  0  0  0  0  0
   19.8404   -7.6180    6.2406 C   0  0  0  0  0  0  0  0  0  0  0  0
   19.7311   -7.8387    7.6176 C   0  0  0  0  0  0  0  0  0  0  0  0
   18.6286   -8.5306    8.1253 C   0  0  0  0  0  0  0  0  0  0  0  0
   18.5008   -8.7607    9.4928 C   0  0  0  0  0  0  0  0  0  0  0  0
   17.3918   -9.4543    9.9949 C   0  0  0  0  0  0  0  0  0  0  0  0
   16.4133   -9.9111    9.0846 C   0  0  0  0  0  0  0  0  0  0  0  0
   15.2915  -10.6038    9.5249 O   0  0  0  0  0  0  0  0  0  0  0  0
   16.5584   -9.6758    7.7516 N   0  0  0  0  0  0  0  0  0  0  0  0
   17.6290   -9.0047    7.2530 C   0  0  0  0  0  0  0  0  0  0  0  0
   17.7430   -8.7813    5.8779 C   0  0  0  0  0  0  0  0  0  0  0  0
   18.8483   -8.0884    5.3729 C   0  0  0  0  0  0  0  0  0  0  0  0
   15.1753  -10.7748   10.4388 H   0  0  0  0  0  0  0  0  0  0  0  0
   18.5234  -10.1003   14.7458 C   0  0  0  0  0  0  0  0  0  0  0  0
   18.1579   -8.9789   15.7039 C   0  0  0  0  0  0  0  0  0  0  0  0
   17.3051   -9.5097   16.8438 C   0  0  0  0  0  0  0  0  0  0  0  0
   16.1787   -8.5765   17.1201 C   0  0  0  0  0  0  0  0  0  0  0  0
   15.6779   -7.9205   16.1689 O   0  0  0  0  0  0  0  0  0  0  0  0
   15.6724   -8.4533   18.4564 N   0  0  0  0  0  0  0  0  0  0  0  0
   16.0940   -9.0201   19.1421 H   0  0  0  0  0  0  0  0  0  0  0  0
   14.6154   -7.5900   18.8968 C   0  0  0  0  0  0  0  0  0  0  0  0
   14.6263   -7.1335   20.2196 C   0  0  0  0  0  0  0  0  0  0  0  0
   13.6158   -6.2865   20.6841 C   0  0  0  0  0  0  0  0  0  0  0  0
   13.6399   -5.7231   22.3407 Cl  0  0  0  0  0  0  0  0  0  0  0  0
   12.5869   -5.8894   19.8260 C   0  0  0  0  0  0  0  0  0  0  0  0
   12.5686   -6.3394   18.5033 C   0  0  0  0  0  0  0  0  0  0  0  0
   13.5793   -7.1865   18.0402 C   0  0  0  0  0  0  0  0  0  0  0  0
  6  7  1  0  0  0
  7  8  2  0  0  0
  8  9  1  0  0  0
  9 10  2  0  0  0
 10 11  1  0  0  0
 11  1  1  0  0  0
 11 12  2  0  0  0
  1  2  2  0  0  0
  2  3  1  0  0  0
  3  4  1  0  0  0
  4 19  1  0  0  0
  4  5  2  0  0  0
 19 20  1  0  0  0
 20 21  1  0  0  0
 21 22  1  0  0  0
 22 23  2  0  0  0
 22 24  1  0  0  0
 24 26  1  0  0  0
 26 27  2  0  0  0
 27 28  1  0  0  0
 28 29  1  0  0  0
 28 30  2  0  0  0
 30 31  1  0  0  0
 31 32  2  0  0  0
 32 26  1  0  0  0
  5  1  1  0  0  0
 12 13  1  0  0  0
 12 14  1  0  0  0
 14 15  2  0  0  0
 15 16  1  0  0  0
 15  9  1  0  0  0
 16 17  2  0  0  0
 17  7  1  0  0  0
 24 25  1  0  0  0
 13 18  1  0  0  0
M  END
>  <minimizedAffinity>
-10.80559

>  <minimizedRMSD>
1.76041

$$$$
ChemDiv-G795-0379 MCULE-1603085612 MolPort-010-745-024 PubChem-53030374 ZINC000035447644


 33 36  0  0  0  0  0  0  0  0999 V2000
   17.2875   -9.9514   13.9040 C   0  0  0  0  0  0  0  0  0  0  0  0
   17.8958  -11.0777   14.5014 C   0  0  0  0  0  0  0  0  0  0  0  0
   18.7361  -12.0315   13.7228 C   0  0  0  0  0  0  0  0  0  0  0  0
   17.7776  -11.2790   15.8795 C   0  0  0  0  0  0  0  0  0  0  0  0
   17.0736  -10.3680   16.6694 C   0  0  0  0  0  0  0  0  0  0  0  0
   16.4908   -9.2337   16.0920 C   0  0  0  0  0  0  0  0  0  0  0  0
   16.6103   -9.0308   14.7107 C   0  0  0  0  0  0  0  0  0  0  0  0
   16.3392   -9.8836   11.5456 C   0  0  0  0  0  0  0  0  0  0  0  0
   15.1602  -10.0947   11.9397 O   0  0  0  0  0  0  0  0  0  0  0  0
   17.3868   -9.6775   12.5008 N   0  0  0  0  0  0  0  0  0  0  0  0
   18.2413   -9.3198   12.1674 H   0  0  0  0  0  0  0  0  0  0  0  0
   16.6124   -9.8070   10.0967 C   0  0  0  0  0  0  0  0  0  0  0  0
   17.6452   -9.0315    9.5060 C   0  0  0  0  0  0  0  0  0  0  0  0
   18.5775   -8.2137   10.1545 C   0  0  0  0  0  0  0  0  0  0  0  0
   19.5291   -7.5233    9.3839 C   0  0  0  0  0  0  0  0  0  0  0  0
   19.5447   -7.6526    7.9813 C   0  0  0  0  0  0  0  0  0  0  0  0
   18.6101   -8.4732    7.3323 C   0  0  0  0  0  0  0  0  0  0  0  0
   17.6831   -9.1413    8.1252 C   0  0  0  0  0  0  0  0  0  0  0  0
   16.4593  -10.1764    7.6964 S   0  0  0  0  0  0  0  0  0  0  0  0
   15.8519  -10.5141    9.2121 N   0  0  0  0  0  0  0  0  0  0  0  0
   15.7605   -8.2644   16.9274 C   0  0  0  0  0  0  0  0  0  0  0  0
   15.9372   -8.2662   18.3480 N   0  0  0  0  0  0  0  0  0  0  0  0
   14.9810   -7.4299   16.3906 O   0  0  0  0  0  0  0  0  0  0  0  0
   16.5677   -8.9098   18.7448 H   0  0  0  0  0  0  0  0  0  0  0  0
   15.2227   -7.3551   19.2290 C   0  0  0  0  0  0  0  0  0  0  0  0
   13.9324   -7.9987   19.7069 C   0  0  0  0  0  0  0  0  0  0  0  0
   12.9508   -6.9501   20.1157 C   0  0  0  0  0  0  0  0  0  0  0  0
   12.8784   -6.2877   21.3212 C   0  0  0  0  0  0  0  0  0  0  0  0
   13.7929   -6.4610   22.4827 C   0  0  0  0  0  0  0  0  0  0  0  0
   11.8342   -5.4367   21.3051 N   0  0  0  0  0  0  0  0  0  0  0  0
   11.2647   -5.5586   20.1389 O   0  0  0  0  0  0  0  0  0  0  0  0
   11.8874   -6.4460   19.3978 C   0  0  0  0  0  0  0  0  0  0  0  0
   11.4803   -6.8259   18.0171 C   0  0  0  0  0  0  0  0  0  0  0  0
 12 13  1  0  0  0
 13 14  2  0  0  0
 14 15  1  0  0  0
 15 16  2  0  0  0
 16 17  1  0  0  0
 17 18  2  0  0  0
 18 19  1  0  0  0
 19 20  1  0  0  0
 12  8  1  0  0  0
  8  9  2  0  0  0
  8 10  1  0  0  0
 10  1  1  0  0  0
  1  2  2  0  0  0
  2  3  1  0  0  0
  2  4  1  0  0  0
  4  5  2  0  0  0
  5  6  1  0  0  0
  6  7  2  0  0  0
  6 21  1  0  0  0
 21 22  1  0  0  0
 22 25  1  0  0  0
 25 26  1  0  0  0
 26 27  1  0  0  0
 27 28  1  0  0  0
 28 29  1  0  0  0
 28 30  2  0  0  0
 30 31  1  0  0  0
 31 32  1  0  0  0
 32 33  1  0  0  0
 21 23  2  0  0  0
 20 12  2  0  0  0
  7  1  1  0  0  0
 32 27  2  0  0  0
 18 13  1  0  0  0
 10 11  1  0  0  0
 22 24  1  0  0  0
M  END
>  <minimizedAffinity>
-10.71774

>  <minimizedRMSD>
1.25628

$$$$
ChemDiv-D420-6401 MCULE-2516867850 MolPort-007-705-726


 34 37  0  0  0  0  0  0  0  0999 V2000
   17.5796  -10.2592   13.5172 C   0  0  0  0  0  0  0  0  0  0  0  0
   18.1772  -10.1670   12.3152 N   0  0  0  0  0  0  0  0  0  0  0  0
   17.1509   -9.7557   11.5380 C   0  0  0  0  0  0  0  0  0  0  0  0
   16.0060   -9.6124   12.2371 N   0  0  0  0  0  0  0  0  0  0  0  0
   16.3131   -9.9337   13.4563 O   0  0  0  0  0  0  0  0  0  0  0  0
   17.2824   -9.4952   10.0881 C   0  0  0  0  0  0  0  0  0  0  0  0
   16.3015   -9.8888    9.1513 C   0  0  0  0  0  0  0  0  0  0  0  0
   15.1480  -10.5502    9.5556 O   0  0  0  0  0  0  0  0  0  0  0  0
   16.4760   -9.6229    7.8276 N   0  0  0  0  0  0  0  0  0  0  0  0
   17.5789   -8.9806    7.3634 C   0  0  0  0  0  0  0  0  0  0  0  0
   17.7228   -8.7250    5.9968 C   0  0  0  0  0  0  0  0  0  0  0  0
   18.8622   -8.0632    5.5271 C   0  0  0  0  0  0  0  0  0  0  0  0
   19.8585   -7.6563    6.4217 C   0  0  0  0  0  0  0  0  0  0  0  0
   21.0672   -6.9546    5.9169 C   0  0  0  0  0  0  0  0  0  0  0  0
   19.7191   -7.9091    7.7904 C   0  0  0  0  0  0  0  0  0  0  0  0
   18.5823   -8.5698    8.2630 C   0  0  0  0  0  0  0  0  0  0  0  0
   18.4246   -8.8318    9.6216 C   0  0  0  0  0  0  0  0  0  0  0  0
   15.0111  -10.7415   10.4626 H   0  0  0  0  0  0  0  0  0  0  0  0
   18.2812  -10.6857   14.7624 C   0  0  0  0  0  0  0  0  0  0  0  0
   17.4251  -10.4107   15.9873 C   0  0  0  0  0  0  0  0  0  0  0  0
   17.7092   -9.0216   16.5322 C   0  0  0  0  0  0  0  0  0  0  0  0
   16.0071   -8.2657   18.2308 N   0  0  0  0  0  0  0  0  0  0  0  0
   16.4302   -8.3385   16.8631 C   0  0  0  0  0  0  0  0  0  0  0  0
   15.7278   -7.8587   15.9343 O   0  0  0  0  0  0  0  0  0  0  0  0
   16.6071   -8.6672   18.9002 H   0  0  0  0  0  0  0  0  0  0  0  0
   12.4642   -6.5017   19.7712 C   0  0  0  0  0  0  0  0  0  0  0  0
   13.5183   -6.8553   20.6188 C   0  0  0  0  0  0  0  0  0  0  0  0
   14.6792   -7.4349   20.0984 C   0  0  0  0  0  0  0  0  0  0  0  0
   14.8004   -7.6688   18.7250 C   0  0  0  0  0  0  0  0  0  0  0  0
   13.7429   -7.3165   17.8737 C   0  0  0  0  0  0  0  0  0  0  0  0
   12.5819   -6.7372   18.3923 C   0  0  0  0  0  0  0  0  0  0  0  0
   11.3142   -5.9267   20.3242 O   0  0  0  0  0  0  0  0  0  0  0  0
   11.4161   -3.9140   21.6563 C   0  0  0  0  0  0  0  0  0  0  0  0
   11.0553   -4.5264   20.3153 C   0  0  0  0  0  0  0  0  0  0  0  0
 33 34  1  0  0  0
 34 32  1  0  0  0
 32 26  1  0  0  0
 26 27  2  0  0  0
 27 28  1  0  0  0
 28 29  2  0  0  0
 29 22  1  0  0  0
 29 30  1  0  0  0
 22 23  1  0  0  0
 23 24  2  0  0  0
 23 21  1  0  0  0
 21 20  1  0  0  0
 20 19  1  0  0  0
 19  1  1  0  0  0
  1  2  2  0  0  0
  2  3  1  0  0  0
  3  4  2  0  0  0
  3  6  1  0  0  0
  4  5  1  0  0  0
  5  1  1  0  0  0
  6  7  2  0  0  0
  7  8  1  0  0  0
  7  9  1  0  0  0
  9 10  2  0  0  0
 10 11  1  0  0  0
 11 12  2  0  0  0
 12 13  1  0  0  0
 13 14  1  0  0  0
 13 15  2  0  0  0
 15 16  1  0  0  0
 16 17  2  0  0  0
 16 10  1  0  0  0
 17  6  1  0  0  0
 30 31  2  0  0  0
 31 26  1  0  0  0
 22 25  1  0  0  0
  8 18  1  0  0  0
M  END
>  <minimizedAffinity>
-10.64098

>  <minimizedRMSD>
1.43584

$$$$
ChemDiv-D420-6416 MCULE-6587345715 MolPort-007-705-736


 32 35  0  0  0  0  0  0  0  0999 V2000
   17.0788   -9.6644   11.6330 C   0  0  0  0  0  0  0  0  0  0  0  0
   15.8975   -9.7020   12.2831 N   0  0  0  0  0  0  0  0  0  0  0  0
   16.2038   -9.9064   13.5275 O   0  0  0  0  0  0  0  0  0  0  0  0
   17.5038   -9.9951   13.6490 C   0  0  0  0  0  0  0  0  0  0  0  0
   18.1277   -9.8442   12.4660 N   0  0  0  0  0  0  0  0  0  0  0  0
   21.0164   -6.9839    5.9672 C   0  0  0  0  0  0  0  0  0  0  0  0
   19.8148   -7.6913    6.4811 C   0  0  0  0  0  0  0  0  0  0  0  0
   19.6614   -7.8983    7.8559 C   0  0  0  0  0  0  0  0  0  0  0  0
   18.5307   -8.5636    8.3370 C   0  0  0  0  0  0  0  0  0  0  0  0
   18.3601   -8.7815    9.7020 C   0  0  0  0  0  0  0  0  0  0  0  0
   17.2241   -9.4498   10.1768 C   0  0  0  0  0  0  0  0  0  0  0  0
   16.2624   -9.8928    9.2420 C   0  0  0  0  0  0  0  0  0  0  0  0
   15.1143  -10.5586    9.6547 O   0  0  0  0  0  0  0  0  0  0  0  0
   16.4497   -9.6699    7.9124 N   0  0  0  0  0  0  0  0  0  0  0  0
   17.5471   -9.0241    7.4398 C   0  0  0  0  0  0  0  0  0  0  0  0
   17.7052   -8.8145    6.0669 C   0  0  0  0  0  0  0  0  0  0  0  0
   18.8386   -8.1485    5.5887 C   0  0  0  0  0  0  0  0  0  0  0  0
   14.9688  -10.7207   10.5661 H   0  0  0  0  0  0  0  0  0  0  0  0
   18.2122  -10.2066   14.9437 C   0  0  0  0  0  0  0  0  0  0  0  0
   17.8552   -9.1130   15.9364 C   0  0  0  0  0  0  0  0  0  0  0  0
   16.6835   -9.5425   16.8033 C   0  0  0  0  0  0  0  0  0  0  0  0
   15.8412   -8.3647   17.1480 C   0  0  0  0  0  0  0  0  0  0  0  0
   15.4661   -7.5826   16.2347 O   0  0  0  0  0  0  0  0  0  0  0  0
   15.4579   -8.1356   18.5065 N   0  0  0  0  0  0  0  0  0  0  0  0
   15.7926   -8.7490   19.2000 H   0  0  0  0  0  0  0  0  0  0  0  0
   14.5935   -7.0342   18.9090 C   0  0  0  0  0  0  0  0  0  0  0  0
   13.1599   -7.4046   18.7311 C   0  0  0  0  0  0  0  0  0  0  0  0
   12.5736   -8.3644   19.5644 C   0  0  0  0  0  0  0  0  0  0  0  0
   11.2325   -8.7193   19.3882 C   0  0  0  0  0  0  0  0  0  0  0  0
   10.4768   -8.1167   18.3779 C   0  0  0  0  0  0  0  0  0  0  0  0
   11.0619   -7.1593   17.5433 C   0  0  0  0  0  0  0  0  0  0  0  0
   12.4029   -6.8041   17.7192 C   0  0  0  0  0  0  0  0  0  0  0  0
  6  7  1  0  0  0
  7  8  2  0  0  0
  8  9  1  0  0  0
  9 10  2  0  0  0
 10 11  1  0  0  0
 11  1  1  0  0  0
 11 12  2  0  0  0
  1  2  2  0  0  0
  2  3  1  0  0  0
  3  4  1  0  0  0
  4 19  1  0  0  0
  4  5  2  0  0  0
 19 20  1  0  0  0
 20 21  1  0  0  0
 21 22  1  0  0  0
 22 23  2  0  0  0
 22 24  1  0  0  0
 24 26  1  0  0  0
 26 27  1  0  0  0
 27 28  2  0  0  0
 28 29  1  0  0  0
 29 30  2  0  0  0
 30 31  1  0  0  0
 31 32  2  0  0  0
 32 27  1  0  0  0
  5  1  1  0  0  0
 12 13  1  0  0  0
 12 14  1  0  0  0
 14 15  2  0  0  0
 15 16  1  0  0  0
 15  9  1  0  0  0
 16 17  2  0  0  0
 17  7  1  0  0  0
 24 25  1  0  0  0
 13 18  1  0  0  0
M  END
>  <minimizedAffinity>
-10.63715

>  <minimizedRMSD>
1.44730

$$$$
ChemDiv-D420-6149 MCULE-6968984038 MolPort-007-705-707


 33 36  0  0  0  0  0  0  0  0999 V2000
   16.6465  -10.2860   13.7683 C   0  0  0  0  0  0  0  0  0  0  0  0
   17.4449  -10.1457   12.6910 N   0  0  0  0  0  0  0  0  0  0  0  0
   16.5528   -9.8007   11.7372 C   0  0  0  0  0  0  0  0  0  0  0  0
   15.2935   -9.7392   12.2152 N   0  0  0  0  0  0  0  0  0  0  0  0
   15.3944  -10.0457   13.4722 O   0  0  0  0  0  0  0  0  0  0  0  0
   16.9290   -9.5240   10.3338 C   0  0  0  0  0  0  0  0  0  0  0  0
   16.1763   -9.9962    9.2361 C   0  0  0  0  0  0  0  0  0  0  0  0
   15.0284  -10.7560    9.4273 O   0  0  0  0  0  0  0  0  0  0  0  0
   16.5700   -9.7101    7.9649 N   0  0  0  0  0  0  0  0  0  0  0  0
   17.6811   -8.9731    7.7058 C   0  0  0  0  0  0  0  0  0  0  0  0
   18.0538   -8.6996    6.3867 C   0  0  0  0  0  0  0  0  0  0  0  0
   19.1996   -7.9398    6.1283 C   0  0  0  0  0  0  0  0  0  0  0  0
   19.5956   -7.6493    4.7259 C   0  0  0  0  0  0  0  0  0  0  0  0
   19.9736   -7.4527    7.1876 C   0  0  0  0  0  0  0  0  0  0  0  0
   19.6055   -7.7232    8.5097 C   0  0  0  0  0  0  0  0  0  0  0  0
   18.4616   -8.4818    8.7709 C   0  0  0  0  0  0  0  0  0  0  0  0
   18.0773   -8.7626   10.0797 C   0  0  0  0  0  0  0  0  0  0  0  0
   14.7425  -10.9626   10.2953 H   0  0  0  0  0  0  0  0  0  0  0  0
   17.1114  -10.6699   15.1399 C   0  0  0  0  0  0  0  0  0  0  0  0
   18.5771  -10.3255   15.3883 C   0  0  0  0  0  0  0  0  0  0  0  0
   18.7326   -8.9177   15.9496 C   0  0  0  0  0  0  0  0  0  0  0  0
   16.7729   -8.5569   17.4990 N   0  0  0  0  0  0  0  0  0  0  0  0
   17.4025   -8.3091   16.2351 C   0  0  0  0  0  0  0  0  0  0  0  0
   16.8434   -7.6056   15.3524 O   0  0  0  0  0  0  0  0  0  0  0  0
   17.2687   -9.1205   18.1361 H   0  0  0  0  0  0  0  0  0  0  0  0
   13.0182   -7.1187   18.8507 C   0  0  0  0  0  0  0  0  0  0  0  0
   14.0662   -7.3397   19.7527 C   0  0  0  0  0  0  0  0  0  0  0  0
   15.2979   -7.8149   19.2929 C   0  0  0  0  0  0  0  0  0  0  0  0
   15.4956   -8.0689   17.9312 C   0  0  0  0  0  0  0  0  0  0  0  0
   14.4445   -7.8382   17.0303 C   0  0  0  0  0  0  0  0  0  0  0  0
   13.2123   -7.3631   17.4882 C   0  0  0  0  0  0  0  0  0  0  0  0
   11.9086   -5.4529   20.3055 C   0  0  0  0  0  0  0  0  0  0  0  0
   11.7059   -6.5947   19.3263 C   0  0  0  0  0  0  0  0  0  0  0  0
 32 33  1  0  0  0
 33 26  1  0  0  0
 26 27  2  0  0  0
 27 28  1  0  0  0
 28 29  2  0  0  0
 29 22  1  0  0  0
 29 30  1  0  0  0
 22 23  1  0  0  0
 23 24  2  0  0  0
 23 21  1  0  0  0
 21 20  1  0  0  0
 20 19  1  0  0  0
 19  1  1  0  0  0
  1  2  2  0  0  0
  2  3  1  0  0  0
  3  4  2  0  0  0
  3  6  1  0  0  0
  4  5  1  0  0  0
  5  1  1  0  0  0
  6  7  2  0  0  0
  7  8  1  0  0  0
  7  9  1  0  0  0
  9 10  2  0  0  0
 10 11  1  0  0  0
 11 12  2  0  0  0
 12 13  1  0  0  0
 12 14  1  0  0  0
 14 15  2  0  0  0
 15 16  1  0  0  0
 16 17  2  0  0  0
 16 10  1  0  0  0
 17  6  1  0  0  0
 30 31  2  0  0  0
 31 26  1  0  0  0
 22 25  1  0  0  0
  8 18  1  0  0  0
M  END
>  <minimizedAffinity>
-10.53082

>  <minimizedRMSD>
1.79808

$$$$
ChemDiv-G795-0390 MCULE-8972253450 MolPort-010-687-198 PubChem-53008922


 31 34  0  0  0  0  0  0  0  0999 V2000
   17.3917  -10.0304   13.7974 C   0  0  0  0  0  0  0  0  0  0  0  0
   17.9951  -11.1479   14.4157 C   0  0  0  0  0  0  0  0  0  0  0  0
   18.8346  -12.1174   13.6558 C   0  0  0  0  0  0  0  0  0  0  0  0
   17.8727  -11.3251   15.7968 C   0  0  0  0  0  0  0  0  0  0  0  0
   17.1693  -10.3987   16.5690 C   0  0  0  0  0  0  0  0  0  0  0  0
   16.5912   -9.2729   15.9706 C   0  0  0  0  0  0  0  0  0  0  0  0
   16.7150   -9.0942   14.5862 C   0  0  0  0  0  0  0  0  0  0  0  0
   16.4133   -9.8734   11.4554 C   0  0  0  0  0  0  0  0  0  0  0  0
   15.2255   -9.9448   11.8725 O   0  0  0  0  0  0  0  0  0  0  0  0
   17.4953   -9.7809   12.3898 N   0  0  0  0  0  0  0  0  0  0  0  0
   18.3787   -9.5261   12.0377 H   0  0  0  0  0  0  0  0  0  0  0  0
   16.6665   -9.8400   10.0013 C   0  0  0  0  0  0  0  0  0  0  0  0
   17.6491   -9.0343    9.3674 C   0  0  0  0  0  0  0  0  0  0  0  0
   18.5425   -8.1422    9.9711 C   0  0  0  0  0  0  0  0  0  0  0  0
   19.4468   -7.4328    9.1618 C   0  0  0  0  0  0  0  0  0  0  0  0
   19.4545   -7.6170    7.7653 C   0  0  0  0  0  0  0  0  0  0  0  0
   18.5589   -8.5122    7.1611 C   0  0  0  0  0  0  0  0  0  0  0  0
   17.6781   -9.1970    7.9915 C   0  0  0  0  0  0  0  0  0  0  0  0
   16.5080  -10.3129    7.6195 S   0  0  0  0  0  0  0  0  0  0  0  0
   15.9362  -10.6221    9.1550 N   0  0  0  0  0  0  0  0  0  0  0  0
   15.8621   -8.2871   16.7872 C   0  0  0  0  0  0  0  0  0  0  0  0
   15.1792   -7.3867   16.2263 O   0  0  0  0  0  0  0  0  0  0  0  0
   15.9301   -8.3524   18.2188 N   0  0  0  0  0  0  0  0  0  0  0  0
   16.4732   -9.0694   18.6191 H   0  0  0  0  0  0  0  0  0  0  0  0
   15.2503   -7.4302   19.1233 C   0  0  0  0  0  0  0  0  0  0  0  0
   15.1129   -8.0271   20.5263 C   0  0  0  0  0  0  0  0  0  0  0  0
   14.0468   -7.2459   21.2769 C   0  0  0  0  0  0  0  0  0  0  0  0
   12.9229   -6.6910   20.0340 S   0  0  0  0  0  0  0  0  0  0  0  0
   12.6476   -5.2197   20.1604 O   0  0  0  0  0  0  0  0  0  0  0  0
   11.6445   -7.4797   20.0560 O   0  0  0  0  0  0  0  0  0  0  0  0
   13.8745   -7.0504   18.5933 C   0  0  0  0  0  0  0  0  0  0  0  0
 12 13  1  0  0  0
 13 14  2  0  0  0
 14 15  1  0  0  0
 15 16  2  0  0  0
 16 17  1  0  0  0
 17 18  2  0  0  0
 18 19  1  0  0  0
 19 20  1  0  0  0
 12  8  1  0  0  0
  8  9  2  0  0  0
  8 10  1  0  0  0
 10  1  1  0  0  0
  1  2  2  0  0  0
  2  3  1  0  0  0
  2  4  1  0  0  0
  4  5  2  0  0  0
  5  6  1  0  0  0
  6  7  2  0  0  0
  6 21  1  0  0  0
 21 22  2  0  0  0
 21 23  1  0  0  0
 23 25  1  0  0  0
 25 26  1  0  0  0
 26 27  1  0  0  0
 27 28  1  0  0  0
 28 29  2  0  0  0
 28 30  2  0  0  0
 28 31  1  0  0  0
 20 12  2  0  0  0
  7  1  1  0  0  0
 31 25  1  0  0  0
 18 13  1  0  0  0
 10 11  1  0  0  0
 23 24  1  0  0  0
M  END
>  <minimizedAffinity>
-10.48588

>  <minimizedRMSD>
1.61558

$$$$
ChemDiv-D439-4253 MCULE-6456718294 MolPort-007-706-801 PubChem-46268383 ZINC000021797238 ZINC21797238


 36 39  0  0  0  0  0  0  0  0999 V2000
   17.3982  -10.1287   14.3035 C   0  0  0  0  0  0  0  0  0  0  0  0
   16.7825   -9.4350   15.3519 C   0  0  0  0  0  0  0  0  0  0  0  0
   16.8252   -9.9144   16.6679 C   0  0  0  0  0  0  0  0  0  0  0  0
   17.4971  -11.1069   16.9382 C   0  0  0  0  0  0  0  0  0  0  0  0
   18.1148  -11.8164   15.9083 C   0  0  0  0  0  0  0  0  0  0  0  0
   18.0731  -11.3452   14.5927 C   0  0  0  0  0  0  0  0  0  0  0  0
   18.7508  -12.1737   13.5573 C   0  0  0  0  0  0  0  0  0  0  0  0
   16.2056   -9.2111   17.7526 N   0  0  0  0  0  0  0  0  0  0  0  0
   15.3563   -8.0598   17.6562 C   0  0  0  0  0  0  0  0  0  0  0  0
   15.0279   -7.5793   16.5390 O   0  0  0  0  0  0  0  0  0  0  0  0
   16.3817   -9.5545   18.6583 H   0  0  0  0  0  0  0  0  0  0  0  0
   14.8216   -7.4446   18.9002 C   0  0  0  0  0  0  0  0  0  0  0  0
   13.4045   -7.5635   18.9186 O   0  0  0  0  0  0  0  0  0  0  0  0
   12.5715   -6.5940   19.4895 C   0  0  0  0  0  0  0  0  0  0  0  0
   11.2044   -6.5730   19.1627 C   0  0  0  0  0  0  0  0  0  0  0  0
   10.6297   -7.5686   18.2148 C   0  0  0  0  0  0  0  0  0  0  0  0
   10.3627   -5.6109   19.7302 C   0  0  0  0  0  0  0  0  0  0  0  0
   10.8756   -4.6652   20.6224 C   0  0  0  0  0  0  0  0  0  0  0  0
   12.2332   -4.6778   20.9503 C   0  0  0  0  0  0  0  0  0  0  0  0
   12.7787   -3.6717   21.8980 C   0  0  0  0  0  0  0  0  0  0  0  0
   13.0782   -5.6376   20.3868 C   0  0  0  0  0  0  0  0  0  0  0  0
   17.2906   -9.5595   13.0241 O   0  0  0  0  0  0  0  0  0  0  0  0
   16.4651  -10.0427   11.9735 C   0  0  0  0  0  0  0  0  0  0  0  0
   18.6572   -8.1833    7.2914 N   0  0  0  0  0  0  0  0  0  0  0  0
   19.5968   -7.3914    7.8581 C   0  0  0  0  0  0  0  0  0  0  0  0
   19.5221   -7.4323    9.2171 N   0  0  0  0  0  0  0  0  0  0  0  0
   18.5001   -8.2883    9.4167 C   0  0  0  0  0  0  0  0  0  0  0  0
   18.0361   -8.6945   10.6233 N   0  0  0  0  0  0  0  0  0  0  0  0
   17.0074   -9.5936   10.6635 C   0  0  0  0  0  0  0  0  0  0  0  0
   16.4533  -10.1013    9.4710 C   0  0  0  0  0  0  0  0  0  0  0  0
   16.9715   -9.6603    8.2474 C   0  0  0  0  0  0  0  0  0  0  0  0
   16.5187  -10.1105    7.1623 O   0  0  0  0  0  0  0  0  0  0  0  0
   17.9801   -8.7477    8.2760 N   0  0  0  0  0  0  0  0  0  0  0  0
   18.4623   -8.3815    5.8593 C   0  0  0  0  0  0  0  0  0  0  0  0
   20.1439   -8.6014    4.0295 C   0  0  0  0  0  0  0  0  0  0  0  0
   19.5449   -7.6682    5.0638 C   0  0  0  0  0  0  0  0  0  0  0  0
 35 36  1  0  0  0
 36 34  1  0  0  0
 34 24  1  0  0  0
 24 25  1  0  0  0
 25 26  2  0  0  0
 26 27  1  0  0  0
 27 28  2  0  0  0
 28 29  1  0  0  0
 29 23  1  0  0  0
 29 30  2  0  0  0
 23 22  1  0  0  0
 22  1  1  0  0  0
  1  2  2  0  0  0
  2  3  1  0  0  0
  3  8  1  0  0  0
  3  4  2  0  0  0
  8  9  1  0  0  0
  9 10  2  0  0  0
  9 12  1  0  0  0
 12 13  1  0  0  0
 13 14  1  0  0  0
 14 15  2  0  0  0
 15 16  1  0  0  0
 15 17  1  0  0  0
 17 18  2  0  0  0
 18 19  1  0  0  0
 19 20  1  0  0  0
 19 21  2  0  0  0
 21 14  1  0  0  0
  4  5  1  0  0  0
  5  6  2  0  0  0
  6  7  1  0  0  0
  6  1  1  0  0  0
 30 31  1  0  0  0
 31 32  2  0  0  0
 31 33  1  0  0  0
 33 24  1  0  0  0
 33 27  1  0  0  0
  8 11  1  0  0  0
M  END
>  <minimizedAffinity>
-10.48383

>  <minimizedRMSD>
1.55987

$$$$
ChemDiv-G795-0356 MCULE-9994744211 MolPort-010-687-191 PubChem-53008915 ZINC000035510329


 34 38  0  0  0  0  0  0  0  0999 V2000
   17.3452   -9.7827   14.1334 C   0  0  0  0  0  0  0  0  0  0  0  0
   18.0987  -10.7984   14.7629 C   0  0  0  0  0  0  0  0  0  0  0  0
   19.0606  -11.6537   14.0110 C   0  0  0  0  0  0  0  0  0  0  0  0
   18.0068  -10.9718   16.1467 C   0  0  0  0  0  0  0  0  0  0  0  0
   17.1856  -10.1403   16.9106 C   0  0  0  0  0  0  0  0  0  0  0  0
   16.4561   -9.1128   16.3008 C   0  0  0  0  0  0  0  0  0  0  0  0
   16.5492   -8.9376   14.9137 C   0  0  0  0  0  0  0  0  0  0  0  0
   16.3515   -9.8080   11.7927 C   0  0  0  0  0  0  0  0  0  0  0  0
   15.1883  -10.0509   12.2147 O   0  0  0  0  0  0  0  0  0  0  0  0
   17.4084   -9.5407   12.7221 N   0  0  0  0  0  0  0  0  0  0  0  0
   18.2431   -9.1612   12.3636 H   0  0  0  0  0  0  0  0  0  0  0  0
   16.5950   -9.7583   10.3375 C   0  0  0  0  0  0  0  0  0  0  0  0
   17.6434   -9.0303    9.7150 C   0  0  0  0  0  0  0  0  0  0  0  0
   18.6211   -8.2422   10.3328 C   0  0  0  0  0  0  0  0  0  0  0  0
   19.5811   -7.5982    9.5334 C   0  0  0  0  0  0  0  0  0  0  0  0
   19.5604   -7.7437    8.1325 C   0  0  0  0  0  0  0  0  0  0  0  0
   18.5805   -8.5346    7.5140 C   0  0  0  0  0  0  0  0  0  0  0  0
   17.6461   -9.1571    8.3350 C   0  0  0  0  0  0  0  0  0  0  0  0
   16.3740  -10.1485    7.9457 S   0  0  0  0  0  0  0  0  0  0  0  0
   15.7882  -10.4453    9.4783 N   0  0  0  0  0  0  0  0  0  0  0  0
   15.6014   -8.2255   17.1089 C   0  0  0  0  0  0  0  0  0  0  0  0
   14.7376   -7.4973   16.5472 O   0  0  0  0  0  0  0  0  0  0  0  0
   15.7503   -8.1889   18.5303 N   0  0  0  0  0  0  0  0  0  0  0  0
   16.4290   -8.7629   18.9536 H   0  0  0  0  0  0  0  0  0  0  0  0
   14.9308   -7.3307   19.3704 C   0  0  0  0  0  0  0  0  0  0  0  0
   15.6056   -7.1178   20.6790 C   0  0  0  0  0  0  0  0  0  0  0  0
   16.9257   -6.6149   20.7158 C   0  0  0  0  0  0  0  0  0  0  0  0
   17.5857   -6.4305   21.9445 C   0  0  0  0  0  0  0  0  0  0  0  0
   16.8905   -6.7661   23.1035 C   0  0  0  0  0  0  0  0  0  0  0  0
   15.6247   -7.2558   23.0694 C   0  0  0  0  0  0  0  0  0  0  0  0
   15.1917   -7.5006   24.3572 O   0  0  0  0  0  0  0  0  0  0  0  0
   16.2498   -7.1422   25.2574 C   0  0  0  0  0  0  0  0  0  0  0  0
   17.3142   -6.6788   24.4144 O   0  0  0  0  0  0  0  0  0  0  0  0
   14.9393   -7.4524   21.8732 C   0  0  0  0  0  0  0  0  0  0  0  0
 12 13  1  0  0  0
 13 14  2  0  0  0
 14 15  1  0  0  0
 15 16  2  0  0  0
 16 17  1  0  0  0
 17 18  2  0  0  0
 18 19  1  0  0  0
 19 20  1  0  0  0
 12  8  1  0  0  0
  8  9  2  0  0  0
  8 10  1  0  0  0
 10  1  1  0  0  0
  1  2  2  0  0  0
  2  3  1  0  0  0
  2  4  1  0  0  0
  4  5  2  0  0  0
  5  6  1  0  0  0
  6  7  2  0  0  0
  6 21  1  0  0  0
 21 22  2  0  0  0
 21 23  1  0  0  0
 23 25  1  0  0  0
 25 26  1  0  0  0
 26 27  2  0  0  0
 27 28  1  0  0  0
 28 29  2  0  0  0
 29 30  1  0  0  0
 30 31  1  0  0  0
 31 32  1  0  0  0
 32 33  1  0  0  0
 30 34  2  0  0  0
 20 12  2  0  0  0
  7  1  1  0  0  0
 34 26  1  0  0  0
 18 13  1  0  0  0
 33 29  1  0  0  0
 10 11  1  0  0  0
 23 24  1  0  0  0
M  END
>  <minimizedAffinity>
-10.42840

>  <minimizedRMSD>
1.78050

$$$$
ChemDiv-G795-0352 MCULE-4089185337 MolPort-010-687-190 PubChem-53008914 ZINC000035510327


 29 32  0  0  0  0  0  0  0  0999 V2000
   17.3217   -9.9903   13.8998 C   0  0  0  0  0  0  0  0  0  0  0  0
   17.9284  -11.1036   14.5226 C   0  0  0  0  0  0  0  0  0  0  0  0
   18.7801  -12.0673   13.7688 C   0  0  0  0  0  0  0  0  0  0  0  0
   17.7973  -11.2817   15.9027 C   0  0  0  0  0  0  0  0  0  0  0  0
   17.0818  -10.3603   16.6698 C   0  0  0  0  0  0  0  0  0  0  0  0
   16.5001   -9.2386   16.0671 C   0  0  0  0  0  0  0  0  0  0  0  0
   16.6328   -9.0589   14.6839 C   0  0  0  0  0  0  0  0  0  0  0  0
   16.3641   -9.8603   11.5477 C   0  0  0  0  0  0  0  0  0  0  0  0
   15.1742   -9.9601   11.9527 O   0  0  0  0  0  0  0  0  0  0  0  0
   17.4338   -9.7400   12.4931 N   0  0  0  0  0  0  0  0  0  0  0  0
   18.3142   -9.4640   12.1498 H   0  0  0  0  0  0  0  0  0  0  0  0
   16.6314   -9.8229   10.0963 C   0  0  0  0  0  0  0  0  0  0  0  0
   17.6395   -9.0373    9.4772 C   0  0  0  0  0  0  0  0  0  0  0  0
   18.5492   -8.1721   10.0955 C   0  0  0  0  0  0  0  0  0  0  0  0
   19.4782   -7.4798    9.2997 C   0  0  0  0  0  0  0  0  0  0  0  0
   19.4942   -7.6541    7.9020 C   0  0  0  0  0  0  0  0  0  0  0  0
   18.5824   -8.5224    7.2831 C   0  0  0  0  0  0  0  0  0  0  0  0
   17.6772   -9.1910    8.1005 C   0  0  0  0  0  0  0  0  0  0  0  0
   16.4832  -10.2748    7.7097 S   0  0  0  0  0  0  0  0  0  0  0  0
   15.8898  -10.5805    9.2377 N   0  0  0  0  0  0  0  0  0  0  0  0
   15.7588   -8.2578   16.8788 C   0  0  0  0  0  0  0  0  0  0  0  0
   15.0783   -7.3573   16.3149 O   0  0  0  0  0  0  0  0  0  0  0  0
   15.8070   -8.3280   18.3077 N   0  0  0  0  0  0  0  0  0  0  0  0
   16.3261   -9.0517   18.7273 H   0  0  0  0  0  0  0  0  0  0  0  0
   15.1205   -7.3739   19.1660 C   0  0  0  0  0  0  0  0  0  0  0  0
   13.6183   -7.5500   19.0277 C   0  0  0  0  0  0  0  0  0  0  0  0
   13.0875   -7.9032   20.4030 C   0  0  0  0  0  0  0  0  0  0  0  0
   14.1629   -7.4872   21.3785 C   0  0  0  0  0  0  0  0  0  0  0  0
   15.4600   -7.6423   20.6209 C   0  0  0  0  0  0  0  0  0  0  0  0
 12 13  1  0  0  0
 13 14  2  0  0  0
 14 15  1  0  0  0
 15 16  2  0  0  0
 16 17  1  0  0  0
 17 18  2  0  0  0
 18 19  1  0  0  0
 19 20  1  0  0  0
 12  8  1  0  0  0
  8  9  2  0  0  0
  8 10  1  0  0  0
 10  1  1  0  0  0
  1  2  2  0  0  0
  2  3  1  0  0  0
  2  4  1  0  0  0
  4  5  2  0  0  0
  5  6  1  0  0  0
  6  7  2  0  0  0
  6 21  1  0  0  0
 21 22  2  0  0  0
 21 23  1  0  0  0
 23 25  1  0  0  0
 25 26  1  0  0  0
 26 27  1  0  0  0
 27 28  1  0  0  0
 28 29  1  0  0  0
 20 12  2  0  0  0
  7  1  1  0  0  0
 29 25  1  0  0  0
 18 13  1  0  0  0
 10 11  1  0  0  0
 23 24  1  0  0  0
M  END
>  <minimizedAffinity>
-10.30029

>  <minimizedRMSD>
1.21812

$$$$
ChemDiv-D420-6431 MCULE-3623838312 MolPort-007-705-744


 32 35  0  0  0  0  0  0  0  0999 V2000
   17.0752   -9.6627   11.6334 C   0  0  0  0  0  0  0  0  0  0  0  0
   15.8937   -9.7022   12.2831 N   0  0  0  0  0  0  0  0  0  0  0  0
   16.1997   -9.9071   13.5273 O   0  0  0  0  0  0  0  0  0  0  0  0
   17.4996   -9.9943   13.6493 C   0  0  0  0  0  0  0  0  0  0  0  0
   18.1238   -9.8420   12.4668 N   0  0  0  0  0  0  0  0  0  0  0  0
   21.0178   -6.9853    5.9699 C   0  0  0  0  0  0  0  0  0  0  0  0
   19.8147   -7.6908    6.4830 C   0  0  0  0  0  0  0  0  0  0  0  0
   19.6607   -7.8979    7.8579 C   0  0  0  0  0  0  0  0  0  0  0  0
   18.5298   -8.5632    8.3382 C   0  0  0  0  0  0  0  0  0  0  0  0
   18.3578   -8.7804    9.7030 C   0  0  0  0  0  0  0  0  0  0  0  0
   17.2214   -9.4484   10.1773 C   0  0  0  0  0  0  0  0  0  0  0  0
   16.2610   -9.8929    9.2418 C   0  0  0  0  0  0  0  0  0  0  0  0
   15.1140  -10.5610    9.6538 O   0  0  0  0  0  0  0  0  0  0  0  0
   16.4495   -9.6705    7.9122 N   0  0  0  0  0  0  0  0  0  0  0  0
   17.5468   -9.0240    7.4403 C   0  0  0  0  0  0  0  0  0  0  0  0
   17.7057   -8.8147    6.0675 C   0  0  0  0  0  0  0  0  0  0  0  0
   18.8393   -8.1483    5.5900 C   0  0  0  0  0  0  0  0  0  0  0  0
   14.9679  -10.7228   10.5651 H   0  0  0  0  0  0  0  0  0  0  0  0
   18.2076  -10.2072   14.9440 C   0  0  0  0  0  0  0  0  0  0  0  0
   17.8496   -9.1154   15.9385 C   0  0  0  0  0  0  0  0  0  0  0  0
   16.6744   -9.5447   16.8009 C   0  0  0  0  0  0  0  0  0  0  0  0
   15.8368   -8.3651   17.1508 C   0  0  0  0  0  0  0  0  0  0  0  0
   15.4640   -7.5778   16.2409 O   0  0  0  0  0  0  0  0  0  0  0  0
   15.4551   -8.1401   18.5104 N   0  0  0  0  0  0  0  0  0  0  0  0
   15.7870   -8.7583   19.2010 H   0  0  0  0  0  0  0  0  0  0  0  0
   14.5965   -7.0359   18.9182 C   0  0  0  0  0  0  0  0  0  0  0  0
   13.1611   -7.3958   18.7336 C   0  0  0  0  0  0  0  0  0  0  0  0
   12.5638   -8.3654   19.5431 C   0  0  0  0  0  0  0  0  0  0  0  0
   11.2218   -8.6997   19.3516 C   0  0  0  0  0  0  0  0  0  0  0  0
   10.4956   -8.0556   18.3469 C   0  0  0  0  0  0  0  0  0  0  0  0
   11.0949   -7.1154   17.5670 N   0  0  0  0  0  0  0  0  0  0  0  0
   12.4013   -6.7763   17.7379 C   0  0  0  0  0  0  0  0  0  0  0  0
  6  7  1  0  0  0
  7  8  2  0  0  0
  8  9  1  0  0  0
  9 10  2  0  0  0
 10 11  1  0  0  0
 11  1  1  0  0  0
 11 12  2  0  0  0
  1  2  2  0  0  0
  2  3  1  0  0  0
  3  4  1  0  0  0
  4 19  1  0  0  0
  4  5  2  0  0  0
 19 20  1  0  0  0
 20 21  1  0  0  0
 21 22  1  0  0  0
 22 23  2  0  0  0
 22 24  1  0  0  0
 24 26  1  0  0  0
 26 27  1  0  0  0
 27 28  2  0  0  0
 28 29  1  0  0  0
 29 30  2  0  0  0
 30 31  1  0  0  0
 31 32  2  0  0  0
 32 27  1  0  0  0
  5  1  1  0  0  0
 12 13  1  0  0  0
 12 14  1  0  0  0
 14 15  2  0  0  0
 15 16  1  0  0  0
 15  9  1  0  0  0
 16 17  2  0  0  0
 17  7  1  0  0  0
 24 25  1  0  0  0
 13 18  1  0  0  0
M  END
>  <minimizedAffinity>
-10.25549

>  <minimizedRMSD>
1.43638

$$$$
ChemDiv-D439-4228 MCULE-6510201923 MolPort-007-706-795 PubChem-46268377 ZINC000021797208 ZINC21797208


 33 36  0  0  0  0  0  0  0  0999 V2000
   17.3786  -10.0798   14.2884 C   0  0  0  0  0  0  0  0  0  0  0  0
   16.7327   -9.4065   15.3315 C   0  0  0  0  0  0  0  0  0  0  0  0
   16.7815   -9.8815   16.6481 C   0  0  0  0  0  0  0  0  0  0  0  0
   17.4920  -11.0496   16.9244 C   0  0  0  0  0  0  0  0  0  0  0  0
   18.1455  -11.7364   15.9006 C   0  0  0  0  0  0  0  0  0  0  0  0
   18.0984  -11.2674   14.5842 C   0  0  0  0  0  0  0  0  0  0  0  0
   18.8436  -12.0518   13.5605 C   0  0  0  0  0  0  0  0  0  0  0  0
   16.1234   -9.2029   17.7261 N   0  0  0  0  0  0  0  0  0  0  0  0
   15.2740   -8.0492   17.6264 C   0  0  0  0  0  0  0  0  0  0  0  0
   15.0101   -7.5414   16.5022 O   0  0  0  0  0  0  0  0  0  0  0  0
   16.2690   -9.5660   18.6295 H   0  0  0  0  0  0  0  0  0  0  0  0
   14.7007   -7.4573   18.8484 C   0  0  0  0  0  0  0  0  0  0  0  0
   13.4757   -6.7746   18.7990 C   0  0  0  0  0  0  0  0  0  0  0  0
   12.9293   -6.2190   19.9594 C   0  0  0  0  0  0  0  0  0  0  0  0
   11.2629   -5.2980   19.8801 Br  0  0  0  0  0  0  0  0  0  0  0  0
   13.6029   -6.3414   21.1779 C   0  0  0  0  0  0  0  0  0  0  0  0
   14.8238   -7.0190   21.2360 C   0  0  0  0  0  0  0  0  0  0  0  0
   15.3703   -7.5748   20.0756 C   0  0  0  0  0  0  0  0  0  0  0  0
   17.2679   -9.5111   13.0098 O   0  0  0  0  0  0  0  0  0  0  0  0
   16.4339   -9.9884   11.9640 C   0  0  0  0  0  0  0  0  0  0  0  0
   18.6938   -8.2301    7.2760 N   0  0  0  0  0  0  0  0  0  0  0  0
   19.5908   -7.3884    7.8390 C   0  0  0  0  0  0  0  0  0  0  0  0
   19.5098   -7.4184    9.1979 N   0  0  0  0  0  0  0  0  0  0  0  0
   18.5199   -8.3100    9.4010 C   0  0  0  0  0  0  0  0  0  0  0  0
   18.0322   -8.6862   10.6083 N   0  0  0  0  0  0  0  0  0  0  0  0
   17.0098   -9.5910   10.6520 C   0  0  0  0  0  0  0  0  0  0  0  0
   16.4599  -10.1074    9.4613 C   0  0  0  0  0  0  0  0  0  0  0  0
   16.9943   -9.6882    8.2357 C   0  0  0  0  0  0  0  0  0  0  0  0
   16.5274  -10.1256    7.1518 O   0  0  0  0  0  0  0  0  0  0  0  0
   18.0224   -8.7976    8.2622 N   0  0  0  0  0  0  0  0  0  0  0  0
   18.4950   -8.4290    5.8469 C   0  0  0  0  0  0  0  0  0  0  0  0
   19.6755   -8.4485    3.6729 C   0  0  0  0  0  0  0  0  0  0  0  0
   19.6769   -7.8747    5.0738 C   0  0  0  0  0  0  0  0  0  0  0  0
 32 33  1  0  0  0
 33 31  1  0  0  0
 31 21  1  0  0  0
 21 22  1  0  0  0
 22 23  2  0  0  0
 23 24  1  0  0  0
 24 25  2  0  0  0
 25 26  1  0  0  0
 26 20  1  0  0  0
 26 27  2  0  0  0
 20 19  1  0  0  0
 19  1  1  0  0  0
  1  2  2  0  0  0
  2  3  1  0  0  0
  3  8  1  0  0  0
  3  4  2  0  0  0
  8  9  1  0  0  0
  9 10  2  0  0  0
  9 12  1  0  0  0
 12 13  2  0  0  0
 13 14  1  0  0  0
 14 15  1  0  0  0
 14 16  2  0  0  0
 16 17  1  0  0  0
 17 18  2  0  0  0
 18 12  1  0  0  0
  4  5  1  0  0  0
  5  6  2  0  0  0
  6  7  1  0  0  0
  6  1  1  0  0  0
 27 28  1  0  0  0
 28 29  2  0  0  0
 28 30  1  0  0  0
 30 21  1  0  0  0
 30 24  1  0  0  0
  8 11  1  0  0  0
M  END
>  <minimizedAffinity>
-10.24708

>  <minimizedRMSD>
1.45902

$$$$
ChemDiv-G756-2849 MCULE-3558219262 MolPort-007-880-109 PubChem-46356820 ZINC000033068337 ZINC33068337


 36 39  0  0  0  0  0  0  0  0999 V2000
   17.6321  -10.8072   14.2151 C   0  0  0  0  0  0  0  0  0  0  0  0
   18.1266  -12.0168   14.7268 C   0  0  0  0  0  0  0  0  0  0  0  0
   18.1565  -12.2361   16.1060 C   0  0  0  0  0  0  0  0  0  0  0  0
   17.6936  -11.2493   16.9806 C   0  0  0  0  0  0  0  0  0  0  0  0
   17.1996  -10.0387   16.4847 C   0  0  0  0  0  0  0  0  0  0  0  0
   17.1717   -9.8256   15.0983 C   0  0  0  0  0  0  0  0  0  0  0  0
   16.7318   -9.0514   17.4138 N   0  0  0  0  0  0  0  0  0  0  0  0
   15.5039   -8.3162   17.3363 C   0  0  0  0  0  0  0  0  0  0  0  0
   14.7090   -8.4688   16.3716 O   0  0  0  0  0  0  0  0  0  0  0  0
   17.3140   -8.8588   18.1840 H   0  0  0  0  0  0  0  0  0  0  0  0
   15.1833   -7.3215   18.3931 C   0  0  0  0  0  0  0  0  0  0  0  0
   14.2180   -7.8672   19.2822 O   0  0  0  0  0  0  0  0  0  0  0  0
   13.7971   -7.2043   20.4378 C   0  0  0  0  0  0  0  0  0  0  0  0
   14.5485   -7.3414   21.6088 C   0  0  0  0  0  0  0  0  0  0  0  0
   14.1566   -6.6867   22.7792 C   0  0  0  0  0  0  0  0  0  0  0  0
   13.0060   -5.8939   22.7853 C   0  0  0  0  0  0  0  0  0  0  0  0
   12.2323   -5.7598   21.6243 C   0  0  0  0  0  0  0  0  0  0  0  0
   12.6425   -6.4050   20.4490 C   0  0  0  0  0  0  0  0  0  0  0  0
   11.0278   -4.8642   21.6222 C   0  0  0  0  0  0  0  0  0  0  0  0
   10.3346   -4.9951   22.8128 F   0  0  0  0  0  0  0  0  0  0  0  0
   10.1783   -5.1901   20.5786 F   0  0  0  0  0  0  0  0  0  0  0  0
   11.4354   -3.5509   21.4783 F   0  0  0  0  0  0  0  0  0  0  0  0
   17.5845  -10.5568   12.8417 O   0  0  0  0  0  0  0  0  0  0  0  0
   16.9813   -9.3925   12.2930 C   0  0  0  0  0  0  0  0  0  0  0  0
   19.1666   -8.0707    4.8323 C   0  0  0  0  0  0  0  0  0  0  0  0
   18.9099   -8.1645    6.2928 C   0  0  0  0  0  0  0  0  0  0  0  0
   17.9625   -9.0643    6.7839 C   0  0  0  0  0  0  0  0  0  0  0  0
   17.7187   -9.1600    8.1252 N   0  0  0  0  0  0  0  0  0  0  0  0
   16.7844  -10.0462    8.5913 C   0  0  0  0  0  0  0  0  0  0  0  0
   16.1351  -10.7813    7.7978 O   0  0  0  0  0  0  0  0  0  0  0  0
   16.5340  -10.1447    9.9591 C   0  0  0  0  0  0  0  0  0  0  0  0
   17.2522   -9.3332   10.8324 C   0  0  0  0  0  0  0  0  0  0  0  0
   18.1664   -8.4561   10.3462 N   0  0  0  0  0  0  0  0  0  0  0  0
   18.4083   -8.3632    9.0128 C   0  0  0  0  0  0  0  0  0  0  0  0
   19.3615   -7.4519    8.5512 C   0  0  0  0  0  0  0  0  0  0  0  0
   19.6116   -7.3547    7.1833 C   0  0  0  0  0  0  0  0  0  0  0  0
 25 26  1  0  0  0
 26 27  2  0  0  0
 27 28  1  0  0  0
 28 29  1  0  0  0
 29 30  2  0  0  0
 29 31  1  0  0  0
 31 32  2  0  0  0
 32 24  1  0  0  0
 32 33  1  0  0  0
 24 23  1  0  0  0
 23  1  1  0  0  0
  1  2  2  0  0  0
  2  3  1  0  0  0
  3  4  2  0  0  0
  4  5  1  0  0  0
  5  7  1  0  0  0
  5  6  2  0  0  0
  7  8  1  0  0  0
  8  9  2  0  0  0
  8 11  1  0  0  0
 11 12  1  0  0  0
 12 13  1  0  0  0
 13 14  2  0  0  0
 14 15  1  0  0  0
 15 16  2  0  0  0
 16 17  1  0  0  0
 17 18  2  0  0  0
 17 19  1  0  0  0
 18 13  1  0  0  0
 19 20  1  0  0  0
 19 21  1  0  0  0
 19 22  1  0  0  0
  6  1  1  0  0  0
 33 34  2  0  0  0
 34 35  1  0  0  0
 34 28  1  0  0  0
 35 36  2  0  0  0
 36 26  1  0  0  0
  7 10  1  0  0  0
M  END
>  <minimizedAffinity>
-10.22111

>  <minimizedRMSD>
1.71534

$$$$
ChemDiv-G756-0429 MCULE-8688784459 MolPort-007-879-155 PubChem-46356022 ZINC000033067816 ZINC33067816


 34 37  0  0  0  0  0  0  0  0999 V2000
   18.6447  -12.3794   13.7347 C   0  0  0  0  0  0  0  0  0  0  0  0
   18.1226  -11.3656   14.6933 C   0  0  0  0  0  0  0  0  0  0  0  0
   18.0690  -11.6812   16.0538 C   0  0  0  0  0  0  0  0  0  0  0  0
   17.5837  -10.7489   16.9740 C   0  0  0  0  0  0  0  0  0  0  0  0
   17.1473   -9.4927   16.5448 C   0  0  0  0  0  0  0  0  0  0  0  0
   17.2015   -9.1785   15.1793 C   0  0  0  0  0  0  0  0  0  0  0  0
   17.6873  -10.1081   14.2453 C   0  0  0  0  0  0  0  0  0  0  0  0
   16.6532   -8.5633   17.5193 N   0  0  0  0  0  0  0  0  0  0  0  0
   15.2842   -8.2074   17.7502 C   0  0  0  0  0  0  0  0  0  0  0  0
   14.3623   -8.7126   17.0541 O   0  0  0  0  0  0  0  0  0  0  0  0
   14.9842   -7.2669   18.7895 N   0  0  0  0  0  0  0  0  0  0  0  0
   17.3248   -8.1238   18.0894 H   0  0  0  0  0  0  0  0  0  0  0  0
   15.7458   -6.9423   19.3224 H   0  0  0  0  0  0  0  0  0  0  0  0
   13.6912   -6.7480   19.1360 C   0  0  0  0  0  0  0  0  0  0  0  0
   13.4321   -6.3933   20.4687 C   0  0  0  0  0  0  0  0  0  0  0  0
   14.3893   -6.5464   21.4169 F   0  0  0  0  0  0  0  0  0  0  0  0
   12.1835   -5.8782   20.8310 C   0  0  0  0  0  0  0  0  0  0  0  0
   11.1861   -5.7130   19.8669 C   0  0  0  0  0  0  0  0  0  0  0  0
    9.9784   -5.2120   20.2206 F   0  0  0  0  0  0  0  0  0  0  0  0
   11.4363   -6.0612   18.5378 C   0  0  0  0  0  0  0  0  0  0  0  0
   12.6832   -6.5765   18.1741 C   0  0  0  0  0  0  0  0  0  0  0  0
   17.7410   -9.8014   12.8810 O   0  0  0  0  0  0  0  0  0  0  0  0
   16.5759   -9.6116   12.0889 C   0  0  0  0  0  0  0  0  0  0  0  0
   16.9669   -9.4082   10.6691 C   0  0  0  0  0  0  0  0  0  0  0  0
   16.3510  -10.1495    9.6654 C   0  0  0  0  0  0  0  0  0  0  0  0
   16.7552   -9.9589    8.3449 C   0  0  0  0  0  0  0  0  0  0  0  0
   16.1952  -10.6271    7.4328 O   0  0  0  0  0  0  0  0  0  0  0  0
   17.7454   -9.0593    8.0521 N   0  0  0  0  0  0  0  0  0  0  0  0
   18.1414   -8.8740    6.7573 C   0  0  0  0  0  0  0  0  0  0  0  0
   19.1518   -7.9638    6.4416 C   0  0  0  0  0  0  0  0  0  0  0  0
   19.7609   -7.2384    7.4638 C   0  0  0  0  0  0  0  0  0  0  0  0
   19.3572   -7.4279    8.7842 C   0  0  0  0  0  0  0  0  0  0  0  0
   18.3429   -8.3456    9.0678 C   0  0  0  0  0  0  0  0  0  0  0  0
   17.9516   -8.5292   10.3553 N   0  0  0  0  0  0  0  0  0  0  0  0
  1  2  1  0  0  0
  2  3  2  0  0  0
  3  4  1  0  0  0
  4  5  2  0  0  0
  5  8  1  0  0  0
  5  6  1  0  0  0
  8  9  1  0  0  0
  9 10  2  0  0  0
  9 11  1  0  0  0
 11 14  1  0  0  0
 14 15  2  0  0  0
 15 16  1  0  0  0
 15 17  1  0  0  0
 17 18  2  0  0  0
 18 19  1  0  0  0
 18 20  1  0  0  0
 20 21  2  0  0  0
 21 14  1  0  0  0
  6  7  2  0  0  0
  7 22  1  0  0  0
  7  2  1  0  0  0
 22 23  1  0  0  0
 23 24  1  0  0  0
 24 25  2  0  0  0
 25 26  1  0  0  0
 26 27  2  0  0  0
 26 28  1  0  0  0
 28 29  1  0  0  0
 29 30  2  0  0  0
 30 31  1  0  0  0
 31 32  2  0  0  0
 32 33  1  0  0  0
 33 34  2  0  0  0
 33 28  1  0  0  0
 34 24  1  0  0  0
  8 12  1  0  0  0
 11 13  1  0  0  0
M  END
>  <minimizedAffinity>
-10.20903

>  <minimizedRMSD>
1.22574

$$$$
ChemDiv-G795-0400 MCULE-3625037515 MolPort-010-847-437 PubChem-53091478 ZINC000064972630


 31 34  0  0  0  0  0  0  0  0999 V2000
   17.3744  -10.0121   13.8376 C   0  0  0  0  0  0  0  0  0  0  0  0
   18.0054  -11.1307   14.4258 C   0  0  0  0  0  0  0  0  0  0  0  0
   18.8572  -12.0661   13.6375 C   0  0  0  0  0  0  0  0  0  0  0  0
   17.8987  -11.3408   15.8036 C   0  0  0  0  0  0  0  0  0  0  0  0
   17.1839  -10.4461   16.6020 C   0  0  0  0  0  0  0  0  0  0  0  0
   16.5784   -9.3190   16.0338 C   0  0  0  0  0  0  0  0  0  0  0  0
   16.6860   -9.1074   14.6528 C   0  0  0  0  0  0  0  0  0  0  0  0
   16.3925   -9.8978   11.4948 C   0  0  0  0  0  0  0  0  0  0  0  0
   15.2140  -10.0775   11.9056 O   0  0  0  0  0  0  0  0  0  0  0  0
   17.4601   -9.7298   12.4351 N   0  0  0  0  0  0  0  0  0  0  0  0
   18.3195   -9.3945   12.0911 H   0  0  0  0  0  0  0  0  0  0  0  0
   16.6457   -9.8175   10.0425 C   0  0  0  0  0  0  0  0  0  0  0  0
   17.6614   -9.0298    9.4386 C   0  0  0  0  0  0  0  0  0  0  0  0
   18.5927   -8.2015   10.0749 C   0  0  0  0  0  0  0  0  0  0  0  0
   19.5260   -7.5000    9.2923 C   0  0  0  0  0  0  0  0  0  0  0  0
   19.5247   -7.6287    7.8897 C   0  0  0  0  0  0  0  0  0  0  0  0
   18.5912   -8.4599    7.2526 C   0  0  0  0  0  0  0  0  0  0  0  0
   17.6824   -9.1389    8.0573 C   0  0  0  0  0  0  0  0  0  0  0  0
   16.4653  -10.1882    7.6443 S   0  0  0  0  0  0  0  0  0  0  0  0
   15.8819  -10.5333    9.1676 N   0  0  0  0  0  0  0  0  0  0  0  0
   15.8352   -8.3678   16.8782 C   0  0  0  0  0  0  0  0  0  0  0  0
   15.7785   -8.5615   18.2953 N   0  0  0  0  0  0  0  0  0  0  0  0
   15.2494   -7.3814   16.3530 O   0  0  0  0  0  0  0  0  0  0  0  0
   16.2723   -9.3175   18.6874 H   0  0  0  0  0  0  0  0  0  0  0  0
   15.0215   -7.6883   19.1823 C   0  0  0  0  0  0  0  0  0  0  0  0
   13.9809   -6.8965   18.3958 C   0  0  0  0  0  0  0  0  0  0  0  0
   12.6093   -7.5031   18.4419 C   0  0  0  0  0  0  0  0  0  0  0  0
   12.1403   -8.4252   19.3581 C   0  0  0  0  0  0  0  0  0  0  0  0
   10.8314   -8.6682   18.9823 C   0  0  0  0  0  0  0  0  0  0  0  0
   10.5890   -7.8825   17.8691 C   0  0  0  0  0  0  0  0  0  0  0  0
   11.6725   -7.2034   17.5796 O   0  0  0  0  0  0  0  0  0  0  0  0
 12 13  1  0  0  0
 13 14  2  0  0  0
 14 15  1  0  0  0
 15 16  2  0  0  0
 16 17  1  0  0  0
 17 18  2  0  0  0
 18 19  1  0  0  0
 19 20  1  0  0  0
 12  8  1  0  0  0
  8  9  2  0  0  0
  8 10  1  0  0  0
 10  1  1  0  0  0
  1  2  2  0  0  0
  2  3  1  0  0  0
  2  4  1  0  0  0
  4  5  2  0  0  0
  5  6  1  0  0  0
  6  7  2  0  0  0
  6 21  1  0  0  0
 21 22  1  0  0  0
 22 25  1  0  0  0
 25 26  1  0  0  0
 26 27  1  0  0  0
 27 28  2  0  0  0
 28 29  1  0  0  0
 29 30  2  0  0  0
 30 31  1  0  0  0
 21 23  2  0  0  0
 20 12  2  0  0  0
  7  1  1  0  0  0
 31 27  1  0  0  0
 18 13  1  0  0  0
 10 11  1  0  0  0
 22 24  1  0  0  0
M  END
>  <minimizedAffinity>
-10.19286

>  <minimizedRMSD>
1.18910

$$$$
ChemDiv-D439-4222 MCULE-8550932307 MolPort-007-706-792 PubChem-46268374 ZINC000021797195 ZINC21797195


 33 36  0  0  0  0  0  0  0  0999 V2000
   17.4103  -10.0933   14.2879 C   0  0  0  0  0  0  0  0  0  0  0  0
   16.7648   -9.4128   15.3268 C   0  0  0  0  0  0  0  0  0  0  0  0
   16.8020   -9.8872   16.6443 C   0  0  0  0  0  0  0  0  0  0  0  0
   17.4988  -11.0626   16.9258 C   0  0  0  0  0  0  0  0  0  0  0  0
   18.1507  -11.7565   15.9064 C   0  0  0  0  0  0  0  0  0  0  0  0
   18.1168  -11.2881   14.5896 C   0  0  0  0  0  0  0  0  0  0  0  0
   18.8468  -12.0914   13.5689 C   0  0  0  0  0  0  0  0  0  0  0  0
   16.1438   -9.2012   17.7180 N   0  0  0  0  0  0  0  0  0  0  0  0
   15.2864   -8.0540   17.6113 C   0  0  0  0  0  0  0  0  0  0  0  0
   15.0401   -7.5392   16.4865 O   0  0  0  0  0  0  0  0  0  0  0  0
   16.2959   -9.5542   18.6244 H   0  0  0  0  0  0  0  0  0  0  0  0
   14.6894   -7.4732   18.8272 C   0  0  0  0  0  0  0  0  0  0  0  0
   13.4738   -6.7756   18.7585 C   0  0  0  0  0  0  0  0  0  0  0  0
   12.9084   -6.2253   19.9126 C   0  0  0  0  0  0  0  0  0  0  0  0
   13.5539   -6.3689   21.1437 C   0  0  0  0  0  0  0  0  0  0  0  0
   12.8469   -5.6788   22.5880 Cl  0  0  0  0  0  0  0  0  0  0  0  0
   14.7649   -7.0618   21.2212 C   0  0  0  0  0  0  0  0  0  0  0  0
   15.3305   -7.6117   20.0671 C   0  0  0  0  0  0  0  0  0  0  0  0
   17.3077   -9.5277   13.0067 O   0  0  0  0  0  0  0  0  0  0  0  0
   16.4606   -9.9921   11.9654 C   0  0  0  0  0  0  0  0  0  0  0  0
   18.6638   -8.2156    7.2559 N   0  0  0  0  0  0  0  0  0  0  0  0
   19.5792   -7.3855    7.8183 C   0  0  0  0  0  0  0  0  0  0  0  0
   19.5023   -7.4057    9.1770 N   0  0  0  0  0  0  0  0  0  0  0  0
   18.5050   -8.2857    9.3869 C   0  0  0  0  0  0  0  0  0  0  0  0
   18.0310   -8.6671   10.5982 N   0  0  0  0  0  0  0  0  0  0  0  0
   17.0159   -9.5796   10.6497 C   0  0  0  0  0  0  0  0  0  0  0  0
   16.4629  -10.1030    9.4635 C   0  0  0  0  0  0  0  0  0  0  0  0
   16.9846   -9.6797    8.2348 C   0  0  0  0  0  0  0  0  0  0  0  0
   16.5197  -10.1293    7.1543 O   0  0  0  0  0  0  0  0  0  0  0  0
   18.0002   -8.7743    8.2522 N   0  0  0  0  0  0  0  0  0  0  0  0
   18.4450   -8.4807    5.8308 C   0  0  0  0  0  0  0  0  0  0  0  0
   19.2771   -8.2302    3.4929 C   0  0  0  0  0  0  0  0  0  0  0  0
   19.6047   -8.0151    4.9582 C   0  0  0  0  0  0  0  0  0  0  0  0
 32 33  1  0  0  0
 33 31  1  0  0  0
 31 21  1  0  0  0
 21 22  1  0  0  0
 22 23  2  0  0  0
 23 24  1  0  0  0
 24 25  2  0  0  0
 25 26  1  0  0  0
 26 20  1  0  0  0
 26 27  2  0  0  0
 20 19  1  0  0  0
 19  1  1  0  0  0
  1  2  2  0  0  0
  2  3  1  0  0  0
  3  8  1  0  0  0
  3  4  2  0  0  0
  8  9  1  0  0  0
  9 10  2  0  0  0
  9 12  1  0  0  0
 12 13  2  0  0  0
 13 14  1  0  0  0
 14 15  2  0  0  0
 15 16  1  0  0  0
 15 17  1  0  0  0
 17 18  2  0  0  0
 18 12  1  0  0  0
  4  5  1  0  0  0
  5  6  2  0  0  0
  6  7  1  0  0  0
  6  1  1  0  0  0
 27 28  1  0  0  0
 28 29  2  0  0  0
 28 30  1  0  0  0
 30 21  1  0  0  0
 30 24  1  0  0  0
  8 11  1  0  0  0
M  END
>  <minimizedAffinity>
-10.13985

>  <minimizedRMSD>
1.38451

$$$$
ChemDiv-G756-1449 MCULE-1154765334 MolPort-007-879-837 PubChem-46356588 ZINC000033068159 ZINC33068159


 36 39  0  0  0  0  0  0  0  0999 V2000
   17.0233  -10.1552   16.5650 C   0  0  0  0  0  0  0  0  0  0  0  0
   17.1535   -9.6755   15.2527 C   0  0  0  0  0  0  0  0  0  0  0  0
   17.8537  -10.4094   14.2901 C   0  0  0  0  0  0  0  0  0  0  0  0
   18.4304  -11.6386   14.6463 C   0  0  0  0  0  0  0  0  0  0  0  0
   18.3046  -12.1222   15.9509 C   0  0  0  0  0  0  0  0  0  0  0  0
   17.6031  -11.3816   16.9058 C   0  0  0  0  0  0  0  0  0  0  0  0
   15.5142   -8.2462   17.3828 C   0  0  0  0  0  0  0  0  0  0  0  0
   15.3792   -7.7410   16.2350 O   0  0  0  0  0  0  0  0  0  0  0  0
   16.3114   -9.4253   17.5733 N   0  0  0  0  0  0  0  0  0  0  0  0
   16.3761   -9.7689   18.4937 H   0  0  0  0  0  0  0  0  0  0  0  0
   14.8396   -7.0242   20.8989 C   0  0  0  0  0  0  0  0  0  0  0  0
   15.4641   -7.6161   19.7918 C   0  0  0  0  0  0  0  0  0  0  0  0
   14.8480   -7.6210   18.5388 C   0  0  0  0  0  0  0  0  0  0  0  0
   13.5922   -7.0252   18.3968 C   0  0  0  0  0  0  0  0  0  0  0  0
   12.9438   -6.4253   19.4880 C   0  0  0  0  0  0  0  0  0  0  0  0
   13.5765   -6.4246   20.7575 C   0  0  0  0  0  0  0  0  0  0  0  0
   16.7321   -6.4337   22.3844 C   0  0  0  0  0  0  0  0  0  0  0  0
   15.4579   -7.0198   22.1547 O   0  0  0  0  0  0  0  0  0  0  0  0
   11.6859   -5.8358   19.3164 O   0  0  0  0  0  0  0  0  0  0  0  0
   11.4883   -4.6254   18.5974 C   0  0  0  0  0  0  0  0  0  0  0  0
   13.0046   -5.8488   21.9047 O   0  0  0  0  0  0  0  0  0  0  0  0
   13.0730   -4.4724   22.2480 C   0  0  0  0  0  0  0  0  0  0  0  0
   17.9606   -9.8969   12.9949 O   0  0  0  0  0  0  0  0  0  0  0  0
   16.8505   -9.3598   12.2877 C   0  0  0  0  0  0  0  0  0  0  0  0
   17.1621   -9.3090   10.8350 C   0  0  0  0  0  0  0  0  0  0  0  0
   16.4801  -10.1362    9.9476 C   0  0  0  0  0  0  0  0  0  0  0  0
   16.7726  -10.0489    8.5875 C   0  0  0  0  0  0  0  0  0  0  0  0
   16.1586  -10.8011    7.7817 O   0  0  0  0  0  0  0  0  0  0  0  0
   17.7113   -9.1571    8.1422 N   0  0  0  0  0  0  0  0  0  0  0  0
   17.9971   -9.0724    6.8085 C   0  0  0  0  0  0  0  0  0  0  0  0
   18.9494   -8.1668    6.3387 C   0  0  0  0  0  0  0  0  0  0  0  0
   19.2516   -8.0839    4.8863 C   0  0  0  0  0  0  0  0  0  0  0  0
   19.6137   -7.3405    7.2428 C   0  0  0  0  0  0  0  0  0  0  0  0
   19.3217   -7.4274    8.6028 C   0  0  0  0  0  0  0  0  0  0  0  0
   18.3643   -8.3445    9.0431 C   0  0  0  0  0  0  0  0  0  0  0  0
   18.0815   -8.4271   10.3689 N   0  0  0  0  0  0  0  0  0  0  0  0
 17 18  1  0  0  0
 18 11  1  0  0  0
 11 12  2  0  0  0
 12 13  1  0  0  0
 13 14  2  0  0  0
 13  7  1  0  0  0
 14 15  1  0  0  0
 15 19  1  0  0  0
 15 16  2  0  0  0
 19 20  1  0  0  0
 16 21  1  0  0  0
 16 11  1  0  0  0
 21 22  1  0  0  0
  7  8  2  0  0  0
  7  9  1  0  0  0
  9  1  1  0  0  0
  1  2  2  0  0  0
  2  3  1  0  0  0
  3 23  1  0  0  0
  3  4  2  0  0  0
 23 24  1  0  0  0
 24 25  1  0  0  0
 25 26  2  0  0  0
 26 27  1  0  0  0
 27 28  2  0  0  0
 27 29  1  0  0  0
 29 30  1  0  0  0
 30 31  2  0  0  0
 31 32  1  0  0  0
 31 33  1  0  0  0
 33 34  2  0  0  0
 34 35  1  0  0  0
 35 36  2  0  0  0
 35 29  1  0  0  0
 36 25  1  0  0  0
  4  5  1  0  0  0
  5  6  2  0  0  0
  6  1  1  0  0  0
  9 10  1  0  0  0
M  END
>  <minimizedAffinity>
-10.13357

>  <minimizedRMSD>
1.28981

$$$$
ChemDiv-G756-1474 MCULE-6717197663 MolPort-007-879-850 PubChem-46356597 ZINC000021100497 ZINC21100497


 34 37  0  0  0  0  0  0  0  0999 V2000
   17.4835  -10.0718   16.3334 C   0  0  0  0  0  0  0  0  0  0  0  0
   17.5195   -9.6790   14.9873 C   0  0  0  0  0  0  0  0  0  0  0  0
   17.9266  -10.5788   13.9894 C   0  0  0  0  0  0  0  0  0  0  0  0
   18.2988  -11.8777   14.3478 C   0  0  0  0  0  0  0  0  0  0  0  0
   18.2666  -12.2757   15.6869 C   0  0  0  0  0  0  0  0  0  0  0  0
   17.8612  -11.3746   16.6750 C   0  0  0  0  0  0  0  0  0  0  0  0
   15.5542   -7.7383   18.6790 N   0  0  0  0  0  0  0  0  0  0  0  0
   15.7627   -8.6420   17.5861 C   0  0  0  0  0  0  0  0  0  0  0  0
   14.8099   -8.9612   16.8251 O   0  0  0  0  0  0  0  0  0  0  0  0
   17.0764   -9.1751   17.3759 N   0  0  0  0  0  0  0  0  0  0  0  0
   16.3428   -7.5199   19.2263 H   0  0  0  0  0  0  0  0  0  0  0  0
   17.7723   -8.8964   18.0142 H   0  0  0  0  0  0  0  0  0  0  0  0
   11.9164   -5.9154   19.8796 C   0  0  0  0  0  0  0  0  0  0  0  0
   12.1203   -6.2232   18.5313 C   0  0  0  0  0  0  0  0  0  0  0  0
   13.3141   -6.8248   18.1231 C   0  0  0  0  0  0  0  0  0  0  0  0
   14.3178   -7.1186   19.0594 C   0  0  0  0  0  0  0  0  0  0  0  0
   14.1111   -6.8005   20.4063 C   0  0  0  0  0  0  0  0  0  0  0  0
   12.9174   -6.1997   20.8166 C   0  0  0  0  0  0  0  0  0  0  0  0
   10.7672   -4.7220   21.7167 C   0  0  0  0  0  0  0  0  0  0  0  0
   10.6464   -5.2584   20.3022 C   0  0  0  0  0  0  0  0  0  0  0  0
   17.9719  -10.2078   12.6431 O   0  0  0  0  0  0  0  0  0  0  0  0
   16.9785   -9.3888   12.0402 C   0  0  0  0  0  0  0  0  0  0  0  0
   17.2425   -9.2758   10.5816 C   0  0  0  0  0  0  0  0  0  0  0  0
   16.5468  -10.0800    9.6840 C   0  0  0  0  0  0  0  0  0  0  0  0
   16.8323   -9.9720    8.3238 C   0  0  0  0  0  0  0  0  0  0  0  0
   16.1995  -10.6968    7.5074 O   0  0  0  0  0  0  0  0  0  0  0  0
   17.7865   -9.0911    7.8899 N   0  0  0  0  0  0  0  0  0  0  0  0
   18.0642   -8.9846    6.5563 C   0  0  0  0  0  0  0  0  0  0  0  0
   19.0373   -8.0943    6.0989 C   0  0  0  0  0  0  0  0  0  0  0  0
   19.3311   -7.9881    4.6465 C   0  0  0  0  0  0  0  0  0  0  0  0
   19.7325   -7.3084    7.0158 C   0  0  0  0  0  0  0  0  0  0  0  0
   19.4480   -7.4169    8.3758 C   0  0  0  0  0  0  0  0  0  0  0  0
   18.4673   -8.3157    8.8032 C   0  0  0  0  0  0  0  0  0  0  0  0
   18.1914   -8.4187   10.1288 N   0  0  0  0  0  0  0  0  0  0  0  0
 19 20  1  0  0  0
 20 13  1  0  0  0
 13 14  2  0  0  0
 14 15  1  0  0  0
 15 16  2  0  0  0
 16  7  1  0  0  0
 16 17  1  0  0  0
  7  8  1  0  0  0
  8  9  2  0  0  0
  8 10  1  0  0  0
 10  1  1  0  0  0
  1  2  2  0  0  0
  2  3  1  0  0  0
  3 21  1  0  0  0
  3  4  2  0  0  0
 21 22  1  0  0  0
 22 23  1  0  0  0
 23 24  2  0  0  0
 24 25  1  0  0  0
 25 26  2  0  0  0
 25 27  1  0  0  0
 27 28  1  0  0  0
 28 29  2  0  0  0
 29 30  1  0  0  0
 29 31  1  0  0  0
 31 32  2  0  0  0
 32 33  1  0  0  0
 33 34  2  0  0  0
 33 27  1  0  0  0
 34 23  1  0  0  0
  4  5  1  0  0  0
  5  6  2  0  0  0
  6  1  1  0  0  0
 17 18  2  0  0  0
 18 13  1  0  0  0
  7 11  1  0  0  0
 10 12  1  0  0  0
M  END
>  <minimizedAffinity>
-10.00000

>  <minimizedRMSD>
1.17641

$$$$
ChemDiv-G756-0435 MCULE-1319836874 MolPort-007-879-161 PubChem-46356028 ZINC000021156774 ZINC21156774


 33 36  0  0  0  0  0  0  0  0999 V2000
   18.6461  -12.3643   13.7317 C   0  0  0  0  0  0  0  0  0  0  0  0
   18.1173  -11.3584   14.6948 C   0  0  0  0  0  0  0  0  0  0  0  0
   18.0669  -11.6801   16.0539 C   0  0  0  0  0  0  0  0  0  0  0  0
   17.5760  -10.7550   16.9784 C   0  0  0  0  0  0  0  0  0  0  0  0
   17.1307   -9.4998   16.5549 C   0  0  0  0  0  0  0  0  0  0  0  0
   17.1827   -9.1791   15.1909 C   0  0  0  0  0  0  0  0  0  0  0  0
   17.6741  -10.1014   14.2527 C   0  0  0  0  0  0  0  0  0  0  0  0
   16.6351   -8.5764   17.5340 N   0  0  0  0  0  0  0  0  0  0  0  0
   15.2705   -8.1862   17.7346 C   0  0  0  0  0  0  0  0  0  0  0  0
   14.3521   -8.6683   17.0184 O   0  0  0  0  0  0  0  0  0  0  0  0
   14.9712   -7.2383   18.7671 N   0  0  0  0  0  0  0  0  0  0  0  0
   17.3024   -8.1674   18.1312 H   0  0  0  0  0  0  0  0  0  0  0  0
   15.7340   -6.9029   19.2914 H   0  0  0  0  0  0  0  0  0  0  0  0
   13.6778   -6.7266   19.1174 C   0  0  0  0  0  0  0  0  0  0  0  0
   13.4206   -6.4066   20.4554 C   0  0  0  0  0  0  0  0  0  0  0  0
   12.1723   -5.9050   20.8361 C   0  0  0  0  0  0  0  0  0  0  0  0
   11.1719   -5.7200   19.8781 C   0  0  0  0  0  0  0  0  0  0  0  0
    9.9627   -5.2334   20.2466 F   0  0  0  0  0  0  0  0  0  0  0  0
   11.4194   -6.0368   18.5399 C   0  0  0  0  0  0  0  0  0  0  0  0
   12.6680   -6.5383   18.1608 C   0  0  0  0  0  0  0  0  0  0  0  0
   17.7285   -9.7871   12.8901 O   0  0  0  0  0  0  0  0  0  0  0  0
   16.5638   -9.6133   12.0936 C   0  0  0  0  0  0  0  0  0  0  0  0
   16.9570   -9.4093   10.6747 C   0  0  0  0  0  0  0  0  0  0  0  0
   16.3442  -10.1508    9.6691 C   0  0  0  0  0  0  0  0  0  0  0  0
   16.7519   -9.9600    8.3498 C   0  0  0  0  0  0  0  0  0  0  0  0
   16.1947  -10.6283    7.4361 O   0  0  0  0  0  0  0  0  0  0  0  0
   17.7435   -9.0610    8.0600 N   0  0  0  0  0  0  0  0  0  0  0  0
   18.1430   -8.8753    6.7663 C   0  0  0  0  0  0  0  0  0  0  0  0
   19.1545   -7.9653    6.4539 C   0  0  0  0  0  0  0  0  0  0  0  0
   19.7609   -7.2403    7.4778 C   0  0  0  0  0  0  0  0  0  0  0  0
   19.3534   -7.4300    8.7970 C   0  0  0  0  0  0  0  0  0  0  0  0
   18.3381   -8.3474    9.0774 C   0  0  0  0  0  0  0  0  0  0  0  0
   17.9432   -8.5311   10.3638 N   0  0  0  0  0  0  0  0  0  0  0  0
  1  2  1  0  0  0
  2  3  2  0  0  0
  3  4  1  0  0  0
  4  5  2  0  0  0
  5  8  1  0  0  0
  5  6  1  0  0  0
  8  9  1  0  0  0
  9 10  2  0  0  0
  9 11  1  0  0  0
 11 14  1  0  0  0
 14 15  2  0  0  0
 15 16  1  0  0  0
 16 17  2  0  0  0
 17 18  1  0  0  0
 17 19  1  0  0  0
 19 20  2  0  0  0
 20 14  1  0  0  0
  6  7  2  0  0  0
  7 21  1  0  0  0
  7  2  1  0  0  0
 21 22  1  0  0  0
 22 23  1  0  0  0
 23 24  2  0  0  0
 24 25  1  0  0  0
 25 26  2  0  0  0
 25 27  1  0  0  0
 27 28  1  0  0  0
 28 29  2  0  0  0
 29 30  1  0  0  0
 30 31  2  0  0  0
 31 32  1  0  0  0
 32 33  2  0  0  0
 32 27  1  0  0  0
 33 23  1  0  0  0
  8 12  1  0  0  0
 11 13  1  0  0  0
M  END
>  <minimizedAffinity>
-9.98036

>  <minimizedRMSD>
1.21561

$$$$
ChemDiv-G756-2321 MCULE-5296955924 MolPort-007-880-018 PubChem-46356751 ZINC000033068277 ZINC33068277


 34 37  0  0  0  0  0  0  0  0999 V2000
   17.1844   -9.8279   16.4590 C   0  0  0  0  0  0  0  0  0  0  0  0
   17.1257   -9.6062   15.0752 C   0  0  0  0  0  0  0  0  0  0  0  0
   17.5923  -10.5770   14.1745 C   0  0  0  0  0  0  0  0  0  0  0  0
   18.1177  -11.7747   14.6682 C   0  0  0  0  0  0  0  0  0  0  0  0
   18.1799  -12.0018   16.0453 C   0  0  0  0  0  0  0  0  0  0  0  0
   17.7151  -11.0306   16.9362 C   0  0  0  0  0  0  0  0  0  0  0  0
   15.0903   -7.4314   18.5902 N   0  0  0  0  0  0  0  0  0  0  0  0
   15.3620   -8.4227   17.5912 C   0  0  0  0  0  0  0  0  0  0  0  0
   14.4301   -8.9019   16.8908 O   0  0  0  0  0  0  0  0  0  0  0  0
   16.7152   -8.8574   17.4048 N   0  0  0  0  0  0  0  0  0  0  0  0
   15.8668   -7.0791   19.0824 H   0  0  0  0  0  0  0  0  0  0  0  0
   17.3940   -8.4464   17.9875 H   0  0  0  0  0  0  0  0  0  0  0  0
   10.1169   -5.3389   20.0776 F   0  0  0  0  0  0  0  0  0  0  0  0
   11.3163   -5.8496   19.7104 C   0  0  0  0  0  0  0  0  0  0  0  0
   12.3166   -6.0426   20.6674 C   0  0  0  0  0  0  0  0  0  0  0  0
   13.5575   -6.5656   20.2906 C   0  0  0  0  0  0  0  0  0  0  0  0
   14.5166   -6.7500   21.2315 F   0  0  0  0  0  0  0  0  0  0  0  0
   13.8071   -6.8972   18.9499 C   0  0  0  0  0  0  0  0  0  0  0  0
   12.7963   -6.6988   17.9958 C   0  0  0  0  0  0  0  0  0  0  0  0
   11.5564   -6.1769   18.3741 C   0  0  0  0  0  0  0  0  0  0  0  0
   17.5463  -10.3768   12.7928 O   0  0  0  0  0  0  0  0  0  0  0  0
   16.7843   -9.3370   12.1926 C   0  0  0  0  0  0  0  0  0  0  0  0
   17.0970   -9.2642   10.7413 C   0  0  0  0  0  0  0  0  0  0  0  0
   16.4556  -10.1167    9.8478 C   0  0  0  0  0  0  0  0  0  0  0  0
   16.7881  -10.0468    8.4958 C   0  0  0  0  0  0  0  0  0  0  0  0
   16.2055  -10.8173    7.6843 O   0  0  0  0  0  0  0  0  0  0  0  0
   17.7348   -9.1555    8.0661 N   0  0  0  0  0  0  0  0  0  0  0  0
   18.0618   -9.0894    6.7408 C   0  0  0  0  0  0  0  0  0  0  0  0
   19.0260   -8.1881    6.2874 C   0  0  0  0  0  0  0  0  0  0  0  0
   19.4327   -8.1131    4.5872 Cl  0  0  0  0  0  0  0  0  0  0  0  0
   19.6604   -7.3475    7.1996 C   0  0  0  0  0  0  0  0  0  0  0  0
   19.3281   -7.4165    8.5512 C   0  0  0  0  0  0  0  0  0  0  0  0
   18.3584   -8.3288    8.9749 C   0  0  0  0  0  0  0  0  0  0  0  0
   18.0363   -8.3942   10.2926 N   0  0  0  0  0  0  0  0  0  0  0  0
 13 14  1  0  0  0
 14 15  2  0  0  0
 15 16  1  0  0  0
 16 17  1  0  0  0
 16 18  2  0  0  0
 18  7  1  0  0  0
 18 19  1  0  0  0
  7  8  1  0  0  0
  8  9  2  0  0  0
  8 10  1  0  0  0
 10  1  1  0  0  0
  1  2  2  0  0  0
  2  3  1  0  0  0
  3 21  1  0  0  0
  3  4  2  0  0  0
 21 22  1  0  0  0
 22 23  1  0  0  0
 23 24  2  0  0  0
 24 25  1  0  0  0
 25 26  2  0  0  0
 25 27  1  0  0  0
 27 28  1  0  0  0
 28 29  2  0  0  0
 29 30  1  0  0  0
 29 31  1  0  0  0
 31 32  2  0  0  0
 32 33  1  0  0  0
 33 34  2  0  0  0
 33 27  1  0  0  0
 34 23  1  0  0  0
  4  5  1  0  0  0
  5  6  2  0  0  0
  6  1  1  0  0  0
 19 20  2  0  0  0
 20 14  1  0  0  0
  7 11  1  0  0  0
 10 12  1  0  0  0
M  END
>  <minimizedAffinity>
-9.97500

>  <minimizedRMSD>
1.02100

$$$$
ChemDiv-G756-1505 MCULE-2040621725 MolPort-007-879-874 PubChem-46356618 ZINC000033068171 ZINC33068171


 34 37  0  0  0  0  0  0  0  0999 V2000
   17.7539  -10.7438   13.9534 C   0  0  0  0  0  0  0  0  0  0  0  0
   18.2296  -11.9796   14.4013 C   0  0  0  0  0  0  0  0  0  0  0  0
   18.3195  -12.2450   15.7699 C   0  0  0  0  0  0  0  0  0  0  0  0
   17.9318  -11.2748   16.6983 C   0  0  0  0  0  0  0  0  0  0  0  0
   17.4528  -10.0343   16.2668 C   0  0  0  0  0  0  0  0  0  0  0  0
   17.3644   -9.7752   14.8915 C   0  0  0  0  0  0  0  0  0  0  0  0
   17.0609   -9.0644   17.2476 N   0  0  0  0  0  0  0  0  0  0  0  0
   15.7226   -8.6771   17.5831 C   0  0  0  0  0  0  0  0  0  0  0  0
   14.7390   -9.1653   16.9659 O   0  0  0  0  0  0  0  0  0  0  0  0
   15.5244   -7.7220   18.6341 N   0  0  0  0  0  0  0  0  0  0  0  0
   17.7863   -8.6184   17.7417 H   0  0  0  0  0  0  0  0  0  0  0  0
   16.3269   -7.4363   19.1276 H   0  0  0  0  0  0  0  0  0  0  0  0
   14.2775   -7.1394   19.0412 C   0  0  0  0  0  0  0  0  0  0  0  0
   14.0776   -6.8318   20.3958 C   0  0  0  0  0  0  0  0  0  0  0  0
   15.0437   -7.1022   21.3100 F   0  0  0  0  0  0  0  0  0  0  0  0
   12.8811   -6.2416   20.8153 C   0  0  0  0  0  0  0  0  0  0  0  0
   11.8779   -5.9523   19.8864 C   0  0  0  0  0  0  0  0  0  0  0  0
   10.7217   -5.3770   20.2952 F   0  0  0  0  0  0  0  0  0  0  0  0
   12.0705   -6.2495   18.5349 C   0  0  0  0  0  0  0  0  0  0  0  0
   13.2661   -6.8383   18.1143 C   0  0  0  0  0  0  0  0  0  0  0  0
   17.6761  -10.5026   12.5793 O   0  0  0  0  0  0  0  0  0  0  0  0
   16.9357   -9.4176   12.0339 C   0  0  0  0  0  0  0  0  0  0  0  0
   19.3519   -7.9697    4.6684 C   0  0  0  0  0  0  0  0  0  0  0  0
   19.0466   -8.0854    6.1178 C   0  0  0  0  0  0  0  0  0  0  0  0
   18.0733   -8.9817    6.5625 C   0  0  0  0  0  0  0  0  0  0  0  0
   17.7831   -9.0940    7.8933 N   0  0  0  0  0  0  0  0  0  0  0  0
   16.8213   -9.9732    8.3128 C   0  0  0  0  0  0  0  0  0  0  0  0
   16.1921  -10.6889    7.4862 O   0  0  0  0  0  0  0  0  0  0  0  0
   16.5247  -10.0918    9.6695 C   0  0  0  0  0  0  0  0  0  0  0  0
   17.2172   -9.2991   10.5791 C   0  0  0  0  0  0  0  0  0  0  0  0
   18.1685   -8.4368   10.1397 N   0  0  0  0  0  0  0  0  0  0  0  0
   18.4553   -8.3244    8.8167 C   0  0  0  0  0  0  0  0  0  0  0  0
   19.4373   -7.4213    8.4019 C   0  0  0  0  0  0  0  0  0  0  0  0
   19.7307   -7.3016    7.0446 C   0  0  0  0  0  0  0  0  0  0  0  0
 23 24  1  0  0  0
 24 25  2  0  0  0
 25 26  1  0  0  0
 26 27  1  0  0  0
 27 28  2  0  0  0
 27 29  1  0  0  0
 29 30  2  0  0  0
 30 22  1  0  0  0
 30 31  1  0  0  0
 22 21  1  0  0  0
 21  1  1  0  0  0
  1  2  2  0  0  0
  2  3  1  0  0  0
  3  4  2  0  0  0
  4  5  1  0  0  0
  5  7  1  0  0  0
  5  6  2  0  0  0
  7  8  1  0  0  0
  8  9  2  0  0  0
  8 10  1  0  0  0
 10 13  1  0  0  0
 13 14  2  0  0  0
 14 15  1  0  0  0
 14 16  1  0  0  0
 16 17  2  0  0  0
 17 18  1  0  0  0
 17 19  1  0  0  0
 19 20  2  0  0  0
 20 13  1  0  0  0
  6  1  1  0  0  0
 31 32  2  0  0  0
 32 33  1  0  0  0
 32 26  1  0  0  0
 33 34  2  0  0  0
 34 24  1  0  0  0
  7 11  1  0  0  0
 10 12  1  0  0  0
M  END
>  <minimizedAffinity>
-9.97403

>  <minimizedRMSD>
1.28367

$$$$
ChemDiv-G357-3043 MCULE-5646111322 MolPort-007-847-914 PubChem-46343595 ZINC000015772206 ZINC15772206


 35 38  0  0  0  0  0  0  0  0999 V2000
   16.5304   -9.0318   16.9123 C   0  0  0  0  0  0  0  0  0  0  0  0
   16.3632   -8.4099   15.6661 C   0  0  0  0  0  0  0  0  0  0  0  0
   16.8369   -9.0201   14.5022 C   0  0  0  0  0  0  0  0  0  0  0  0
   17.4843  -10.2600   14.5677 C   0  0  0  0  0  0  0  0  0  0  0  0
   17.6510  -10.8818   15.8131 C   0  0  0  0  0  0  0  0  0  0  0  0
   17.1751  -10.2704   16.9769 C   0  0  0  0  0  0  0  0  0  0  0  0
   14.8498   -7.6738   18.2996 C   0  0  0  0  0  0  0  0  0  0  0  0
   14.0888   -7.4444   17.3193 O   0  0  0  0  0  0  0  0  0  0  0  0
   16.0546   -8.4371   18.1279 N   0  0  0  0  0  0  0  0  0  0  0  0
   16.6124   -8.5657   18.9289 H   0  0  0  0  0  0  0  0  0  0  0  0
   13.8307   -6.1432   22.1750 C   0  0  0  0  0  0  0  0  0  0  0  0
   12.9056   -6.0593   21.1233 C   0  0  0  0  0  0  0  0  0  0  0  0
   13.2483   -6.5631   19.8578 C   0  0  0  0  0  0  0  0  0  0  0  0
   14.5012   -7.1482   19.6317 C   0  0  0  0  0  0  0  0  0  0  0  0
   15.4175   -7.2296   20.6872 C   0  0  0  0  0  0  0  0  0  0  0  0
   15.0862   -6.7310   21.9484 C   0  0  0  0  0  0  0  0  0  0  0  0
   14.3282   -4.7657   24.1709 C   0  0  0  0  0  0  0  0  0  0  0  0
   13.4832   -5.6376   23.4326 O   0  0  0  0  0  0  0  0  0  0  0  0
   11.6555   -5.4738   21.3563 O   0  0  0  0  0  0  0  0  0  0  0  0
   11.2344   -4.2787   20.7137 C   0  0  0  0  0  0  0  0  0  0  0  0
   17.9835  -10.8964   13.3382 C   0  0  0  0  0  0  0  0  0  0  0  0
   18.2002  -12.1397   13.3117 O   0  0  0  0  0  0  0  0  0  0  0  0
   18.2127  -10.1171   12.2024 O   0  0  0  0  0  0  0  0  0  0  0  0
   17.1727   -9.3920   11.5629 C   0  0  0  0  0  0  0  0  0  0  0  0
   17.5090   -9.2108   10.1259 C   0  0  0  0  0  0  0  0  0  0  0  0
   16.7775   -9.9127    9.1450 C   0  0  0  0  0  0  0  0  0  0  0  0
   17.0831   -9.6907    7.7965 C   0  0  0  0  0  0  0  0  0  0  0  0
   16.4587  -10.2924    6.8840 O   0  0  0  0  0  0  0  0  0  0  0  0
   18.0654   -8.8044    7.5041 N   0  0  0  0  0  0  0  0  0  0  0  0
   18.5108   -8.4450    6.3436 O   0  0  0  0  0  0  0  0  0  0  0  0
   19.4708   -7.5566    6.5160 C   0  0  0  0  0  0  0  0  0  0  0  0
   20.2173   -6.9175    5.4015 C   0  0  0  0  0  0  0  0  0  0  0  0
   19.6835   -7.3035    7.8756 C   0  0  0  0  0  0  0  0  0  0  0  0
   18.7442   -8.1415    8.4453 C   0  0  0  0  0  0  0  0  0  0  0  0
   18.4836   -8.3229    9.7633 N   0  0  0  0  0  0  0  0  0  0  0  0
 17 18  1  0  0  0
 18 11  1  0  0  0
 11 12  2  0  0  0
 12 19  1  0  0  0
 12 13  1  0  0  0
 19 20  1  0  0  0
 13 14  2  0  0  0
 14 15  1  0  0  0
 14  7  1  0  0  0
 15 16  2  0  0  0
 16 11  1  0  0  0
  7  8  2  0  0  0
  7  9  1  0  0  0
  9  1  1  0  0  0
  1  2  2  0  0  0
  2  3  1  0  0  0
  3  4  2  0  0  0
  4  5  1  0  0  0
  4 21  1  0  0  0
  5  6  2  0  0  0
  6  1  1  0  0  0
 21 22  2  0  0  0
 21 23  1  0  0  0
 23 24  1  0  0  0
 24 25  1  0  0  0
 25 26  2  0  0  0
 26 27  1  0  0  0
 27 28  2  0  0  0
 27 29  1  0  0  0
 29 30  1  0  0  0
 30 31  1  0  0  0
 31 32  1  0  0  0
 31 33  2  0  0  0
 33 34  1  0  0  0
 34 35  2  0  0  0
 34 29  1  0  0  0
 35 25  1  0  0  0
  9 10  1  0  0  0
M  END
>  <minimizedAffinity>
-9.95030

>  <minimizedRMSD>
1.15033

$$$$
ChemDiv-G756-1074 MCULE-9041212992 MolPort-007-879-579 PubChem-46356385 ZINC000021100277 ZINC21100277


 36 40  0  0  0  0  0  0  0  0999 V2000
   17.8086  -10.2670   13.1548 C   0  0  0  0  0  0  0  0  0  0  0  0
   18.3287  -11.5667   13.2578 C   0  0  0  0  0  0  0  0  0  0  0  0
   18.4990  -12.1583   14.5117 C   0  0  0  0  0  0  0  0  0  0  0  0
   18.1513  -11.4557   15.6685 C   0  0  0  0  0  0  0  0  0  0  0  0
   17.6320  -10.1599   15.5811 C   0  0  0  0  0  0  0  0  0  0  0  0
   17.4635   -9.5720   14.3181 C   0  0  0  0  0  0  0  0  0  0  0  0
   17.2872   -9.4720   16.7916 N   0  0  0  0  0  0  0  0  0  0  0  0
   16.0425   -8.8269   17.0894 C   0  0  0  0  0  0  0  0  0  0  0  0
   15.1039   -8.8210   16.2481 O   0  0  0  0  0  0  0  0  0  0  0  0
   15.8868   -8.1882   18.3630 N   0  0  0  0  0  0  0  0  0  0  0  0
   17.9785   -9.4396   17.4918 H   0  0  0  0  0  0  0  0  0  0  0  0
   16.6589   -8.2278   18.9725 H   0  0  0  0  0  0  0  0  0  0  0  0
   14.7253   -7.4973   18.8436 C   0  0  0  0  0  0  0  0  0  0  0  0
   13.6431   -7.1872   18.0026 C   0  0  0  0  0  0  0  0  0  0  0  0
   12.5282   -6.5058   18.5015 C   0  0  0  0  0  0  0  0  0  0  0  0
   12.4904   -6.1315   19.8460 C   0  0  0  0  0  0  0  0  0  0  0  0
   11.3997   -5.4267   20.3626 O   0  0  0  0  0  0  0  0  0  0  0  0
   11.4756   -4.7966   21.6433 C   0  0  0  0  0  0  0  0  0  0  0  0
   12.2408   -5.6859   22.6262 C   0  0  0  0  0  0  0  0  0  0  0  0
   13.4768   -6.1129   22.0483 O   0  0  0  0  0  0  0  0  0  0  0  0
   13.5539   -6.4613   20.6970 C   0  0  0  0  0  0  0  0  0  0  0  0
   14.6721   -7.1310   20.1939 C   0  0  0  0  0  0  0  0  0  0  0  0
   17.6254   -9.6461   11.9167 O   0  0  0  0  0  0  0  0  0  0  0  0
   18.5925   -8.7759   11.3437 C   0  0  0  0  0  0  0  0  0  0  0  0
   20.9518   -6.4809    4.7908 C   0  0  0  0  0  0  0  0  0  0  0  0
   19.9989   -7.2798    5.6043 C   0  0  0  0  0  0  0  0  0  0  0  0
   20.1117   -7.2985    6.9932 C   0  0  0  0  0  0  0  0  0  0  0  0
   19.2094   -8.0542    7.7453 C   0  0  0  0  0  0  0  0  0  0  0  0
   19.3209   -8.0710    9.0987 N   0  0  0  0  0  0  0  0  0  0  0  0
   18.4666   -8.7972    9.8625 C   0  0  0  0  0  0  0  0  0  0  0  0
   17.4463   -9.5279    9.2612 C   0  0  0  0  0  0  0  0  0  0  0  0
   17.3346   -9.5085    7.8718 C   0  0  0  0  0  0  0  0  0  0  0  0
   16.4129  -10.1738    7.3243 O   0  0  0  0  0  0  0  0  0  0  0  0
   18.2147   -8.7750    7.1216 N   0  0  0  0  0  0  0  0  0  0  0  0
   18.1041   -8.7567    5.7596 C   0  0  0  0  0  0  0  0  0  0  0  0
   18.9910   -8.0119    4.9800 C   0  0  0  0  0  0  0  0  0  0  0  0
 25 26  1  0  0  0
 26 27  2  0  0  0
 27 28  1  0  0  0
 28 29  2  0  0  0
 29 30  1  0  0  0
 30 24  1  0  0  0
 24 23  1  0  0  0
 23  1  1  0  0  0
  1  2  2  0  0  0
  2  3  1  0  0  0
  3  4  2  0  0  0
  4  5  1  0  0  0
  5  7  1  0  0  0
  7  8  1  0  0  0
  8  9  2  0  0  0
  8 10  1  0  0  0
 10 13  1  0  0  0
 13 14  2  0  0  0
 14 15  1  0  0  0
 15 16  2  0  0  0
 16 17  1  0  0  0
 17 18  1  0  0  0
 18 19  1  0  0  0
 19 20  1  0  0  0
 20 21  1  0  0  0
 21 22  2  0  0  0
  5  6  2  0  0  0
 30 31  2  0  0  0
 31 32  1  0  0  0
 32 33  2  0  0  0
 32 34  1  0  0  0
 34 35  1  0  0  0
 35 36  2  0  0  0
 36 26  1  0  0  0
 34 28  1  0  0  0
  6  1  1  0  0  0
 22 13  1  0  0  0
 21 16  1  0  0  0
  7 11  1  0  0  0
 10 12  1  0  0  0
M  END
>  <minimizedAffinity>
-9.94943

>  <minimizedRMSD>
2.45275

$$$$
ChemDiv-G756-1448 MCULE-8710594322 MolPort-007-879-836 PubChem-46356587 ZINC000033068158 ZINC33068158


 34 37  0  0  0  0  0  0  0  0999 V2000
   16.9822  -10.1178   16.5957 C   0  0  0  0  0  0  0  0  0  0  0  0
   17.1138   -9.6802   15.2689 C   0  0  0  0  0  0  0  0  0  0  0  0
   17.8478  -10.4253   14.3407 C   0  0  0  0  0  0  0  0  0  0  0  0
   18.4572  -11.6230   14.7464 C   0  0  0  0  0  0  0  0  0  0  0  0
   18.3303  -12.0645   16.0655 C   0  0  0  0  0  0  0  0  0  0  0  0
   17.5947  -11.3131   16.9859 C   0  0  0  0  0  0  0  0  0  0  0  0
   15.4498   -8.1964   17.3381 C   0  0  0  0  0  0  0  0  0  0  0  0
   15.3584   -7.7027   16.1811 O   0  0  0  0  0  0  0  0  0  0  0  0
   16.2361   -9.3755   17.5698 N   0  0  0  0  0  0  0  0  0  0  0  0
   16.2663   -9.7095   18.4955 H   0  0  0  0  0  0  0  0  0  0  0  0
   13.3915   -6.3354   20.6165 C   0  0  0  0  0  0  0  0  0  0  0  0
   14.6749   -6.9031   20.8157 C   0  0  0  0  0  0  0  0  0  0  0  0
   15.3325   -7.5077   19.7308 C   0  0  0  0  0  0  0  0  0  0  0  0
   14.7434   -7.5579   18.4627 C   0  0  0  0  0  0  0  0  0  0  0  0
   13.4770   -6.9946   18.2774 C   0  0  0  0  0  0  0  0  0  0  0  0
   12.8113   -6.3908   19.3446 C   0  0  0  0  0  0  0  0  0  0  0  0
   11.4724   -4.9427   21.4179 C   0  0  0  0  0  0  0  0  0  0  0  0
   12.6494   -5.7090   21.6292 O   0  0  0  0  0  0  0  0  0  0  0  0
   15.2854   -6.8657   22.0747 O   0  0  0  0  0  0  0  0  0  0  0  0
   14.9879   -7.7960   23.1076 C   0  0  0  0  0  0  0  0  0  0  0  0
   17.9549   -9.9552   13.0294 O   0  0  0  0  0  0  0  0  0  0  0  0
   16.8677   -9.3546   12.3379 C   0  0  0  0  0  0  0  0  0  0  0  0
   17.1665   -9.3098   10.8823 C   0  0  0  0  0  0  0  0  0  0  0  0
   16.4760  -10.1397   10.0042 C   0  0  0  0  0  0  0  0  0  0  0  0
   16.7564  -10.0579    8.6412 C   0  0  0  0  0  0  0  0  0  0  0  0
   16.1346  -10.8126    7.8438 O   0  0  0  0  0  0  0  0  0  0  0  0
   17.6921   -9.1686    8.1841 N   0  0  0  0  0  0  0  0  0  0  0  0
   17.9659   -9.0892    6.8476 C   0  0  0  0  0  0  0  0  0  0  0  0
   18.9147   -8.1859    6.3660 C   0  0  0  0  0  0  0  0  0  0  0  0
   19.2039   -8.1088    4.9106 C   0  0  0  0  0  0  0  0  0  0  0  0
   19.5875   -7.3568    7.2611 C   0  0  0  0  0  0  0  0  0  0  0  0
   19.3076   -7.4383    8.6239 C   0  0  0  0  0  0  0  0  0  0  0  0
   18.3535   -8.3531    9.0762 C   0  0  0  0  0  0  0  0  0  0  0  0
   18.0824   -8.4304   10.4046 N   0  0  0  0  0  0  0  0  0  0  0  0
 17 18  1  0  0  0
 18 11  1  0  0  0
 11 12  2  0  0  0
 12 19  1  0  0  0
 12 13  1  0  0  0
 19 20  1  0  0  0
 13 14  2  0  0  0
 14 15  1  0  0  0
 14  7  1  0  0  0
 15 16  2  0  0  0
 16 11  1  0  0  0
  7  8  2  0  0  0
  7  9  1  0  0  0
  9  1  1  0  0  0
  1  2  2  0  0  0
  2  3  1  0  0  0
  3 21  1  0  0  0
  3  4  2  0  0  0
 21 22  1  0  0  0
 22 23  1  0  0  0
 23 24  2  0  0  0
 24 25  1  0  0  0
 25 26  2  0  0  0
 25 27  1  0  0  0
 27 28  1  0  0  0
 28 29  2  0  0  0
 29 30  1  0  0  0
 29 31  1  0  0  0
 31 32  2  0  0  0
 32 33  1  0  0  0
 33 34  2  0  0  0
 33 27  1  0  0  0
 34 23  1  0  0  0
  4  5  1  0  0  0
  5  6  2  0  0  0
  6  1  1  0  0  0
  9 10  1  0  0  0
M  END
>  <minimizedAffinity>
-9.94123

>  <minimizedRMSD>
1.05955

$$$$
ChemDiv-G795-0353 MCULE-3780737941 MolPort-010-847-422 PubChem-53091465 ZINC000064972604


 30 33  0  0  0  0  0  0  0  0999 V2000
   17.2822   -9.9775   13.9181 C   0  0  0  0  0  0  0  0  0  0  0  0
   17.8731  -11.1119   14.5177 C   0  0  0  0  0  0  0  0  0  0  0  0
   18.7014  -12.0781   13.7415 C   0  0  0  0  0  0  0  0  0  0  0  0
   17.7488  -11.3106   15.8955 C   0  0  0  0  0  0  0  0  0  0  0  0
   17.0559  -10.3893   16.6832 C   0  0  0  0  0  0  0  0  0  0  0  0
   16.4907   -9.2472   16.1038 C   0  0  0  0  0  0  0  0  0  0  0  0
   16.6162   -9.0469   14.7226 C   0  0  0  0  0  0  0  0  0  0  0  0
   16.3365   -9.8876   11.5593 C   0  0  0  0  0  0  0  0  0  0  0  0
   15.1528  -10.0708   11.9532 O   0  0  0  0  0  0  0  0  0  0  0  0
   17.3884   -9.7061   12.5148 N   0  0  0  0  0  0  0  0  0  0  0  0
   18.2511   -9.3686   12.1816 H   0  0  0  0  0  0  0  0  0  0  0  0
   16.6119   -9.8173   10.1105 C   0  0  0  0  0  0  0  0  0  0  0  0
   17.6418   -9.0399    9.5175 C   0  0  0  0  0  0  0  0  0  0  0  0
   18.5690   -8.2142   10.1632 C   0  0  0  0  0  0  0  0  0  0  0  0
   19.5185   -7.5233    9.3906 C   0  0  0  0  0  0  0  0  0  0  0  0
   19.5373   -7.6598    7.9888 C   0  0  0  0  0  0  0  0  0  0  0  0
   18.6078   -8.4886    7.3425 C   0  0  0  0  0  0  0  0  0  0  0  0
   17.6826   -9.1569    8.1373 C   0  0  0  0  0  0  0  0  0  0  0  0
   16.4648  -10.2003    7.7120 S   0  0  0  0  0  0  0  0  0  0  0  0
   15.8564  -10.5330    9.2284 N   0  0  0  0  0  0  0  0  0  0  0  0
   15.7715   -8.2676   16.9367 C   0  0  0  0  0  0  0  0  0  0  0  0
   15.1226   -7.3325   16.3924 O   0  0  0  0  0  0  0  0  0  0  0  0
   15.8114   -8.3743   18.3638 N   0  0  0  0  0  0  0  0  0  0  0  0
   16.3528   -9.0906   18.7675 H   0  0  0  0  0  0  0  0  0  0  0  0
   15.0859   -7.4693   19.2439 C   0  0  0  0  0  0  0  0  0  0  0  0
   13.6373   -7.4602   18.8927 C   0  0  0  0  0  0  0  0  0  0  0  0
   12.9248   -6.3493   18.5015 C   0  0  0  0  0  0  0  0  0  0  0  0
   11.6430   -6.8190   18.2717 C   0  0  0  0  0  0  0  0  0  0  0  0
   11.6648   -8.1781   18.5368 C   0  0  0  0  0  0  0  0  0  0  0  0
   12.8751   -8.5227   18.9044 O   0  0  0  0  0  0  0  0  0  0  0  0
 12 13  1  0  0  0
 13 14  2  0  0  0
 14 15  1  0  0  0
 15 16  2  0  0  0
 16 17  1  0  0  0
 17 18  2  0  0  0
 18 19  1  0  0  0
 19 20  1  0  0  0
 12  8  1  0  0  0
  8  9  2  0  0  0
  8 10  1  0  0  0
 10  1  1  0  0  0
  1  2  2  0  0  0
  2  3  1  0  0  0
  2  4  1  0  0  0
  4  5  2  0  0  0
  5  6  1  0  0  0
  6  7  2  0  0  0
  6 21  1  0  0  0
 21 22  2  0  0  0
 21 23  1  0  0  0
 23 25  1  0  0  0
 25 26  1  0  0  0
 26 27  2  0  0  0
 27 28  1  0  0  0
 28 29  2  0  0  0
 29 30  1  0  0  0
 20 12  2  0  0  0
  7  1  1  0  0  0
 30 26  1  0  0  0
 18 13  1  0  0  0
 10 11  1  0  0  0
 23 24  1  0  0  0
M  END
>  <minimizedAffinity>
-9.93952

>  <minimizedRMSD>
0.70281

$$$$
ChemDiv-G756-0391 MCULE-3521203505 MolPort-007-879-122 PubChem-46355989 ZINC000033067807 ZINC33067807


 33 36  0  0  0  0  0  0  0  0999 V2000
   17.2464   -9.6502   16.5289 C   0  0  0  0  0  0  0  0  0  0  0  0
   17.7092  -10.9170   16.8949 C   0  0  0  0  0  0  0  0  0  0  0  0
   18.1977  -11.7985   15.9275 C   0  0  0  0  0  0  0  0  0  0  0  0
   18.2263  -11.4219   14.5822 C   0  0  0  0  0  0  0  0  0  0  0  0
   18.7499  -12.3830   13.5715 C   0  0  0  0  0  0  0  0  0  0  0  0
   17.7640  -10.1528   14.1974 C   0  0  0  0  0  0  0  0  0  0  0  0
   17.2774   -9.2738   15.1788 C   0  0  0  0  0  0  0  0  0  0  0  0
   15.1131   -7.4035   18.7798 N   0  0  0  0  0  0  0  0  0  0  0  0
   15.4183   -8.2635   17.6750 C   0  0  0  0  0  0  0  0  0  0  0  0
   14.5322   -8.5652   16.8312 O   0  0  0  0  0  0  0  0  0  0  0  0
   16.7511   -8.7753   17.5513 N   0  0  0  0  0  0  0  0  0  0  0  0
   15.8610   -7.1723   19.3768 H   0  0  0  0  0  0  0  0  0  0  0  0
   17.3952   -8.4965   18.2417 H   0  0  0  0  0  0  0  0  0  0  0  0
   10.0306   -5.1926   20.2171 C   0  0  0  0  0  0  0  0  0  0  0  0
   11.3480   -5.7625   19.8321 C   0  0  0  0  0  0  0  0  0  0  0  0
   11.5948   -6.1171   18.5034 C   0  0  0  0  0  0  0  0  0  0  0  0
   12.8330   -6.6565   18.1428 C   0  0  0  0  0  0  0  0  0  0  0  0
   13.8342   -6.8436   19.1087 C   0  0  0  0  0  0  0  0  0  0  0  0
   13.5773   -6.4876   20.4372 C   0  0  0  0  0  0  0  0  0  0  0  0
   12.3387   -5.9487   20.7992 C   0  0  0  0  0  0  0  0  0  0  0  0
   17.7968   -9.7846   12.8479 O   0  0  0  0  0  0  0  0  0  0  0  0
   16.6214   -9.5671   12.0787 C   0  0  0  0  0  0  0  0  0  0  0  0
   16.9927   -9.3736   10.6529 C   0  0  0  0  0  0  0  0  0  0  0  0
   16.3709  -10.1283    9.6624 C   0  0  0  0  0  0  0  0  0  0  0  0
   16.7683   -9.9550    8.3371 C   0  0  0  0  0  0  0  0  0  0  0  0
   16.2007  -10.6317    7.4360 O   0  0  0  0  0  0  0  0  0  0  0  0
   17.7599   -9.0619    8.0277 N   0  0  0  0  0  0  0  0  0  0  0  0
   18.1501   -8.8941    6.7284 C   0  0  0  0  0  0  0  0  0  0  0  0
   19.1566   -7.9861    6.3954 C   0  0  0  0  0  0  0  0  0  0  0  0
   19.7670   -7.2436    7.4039 C   0  0  0  0  0  0  0  0  0  0  0  0
   19.3683   -7.4141    8.7286 C   0  0  0  0  0  0  0  0  0  0  0  0
   18.3575   -8.3302    9.0297 C   0  0  0  0  0  0  0  0  0  0  0  0
   17.9741   -8.4977   10.3216 N   0  0  0  0  0  0  0  0  0  0  0  0
 14 15  1  0  0  0
 15 16  2  0  0  0
 16 17  1  0  0  0
 17 18  2  0  0  0
 18  8  1  0  0  0
 18 19  1  0  0  0
  8  9  1  0  0  0
  9 10  2  0  0  0
  9 11  1  0  0  0
 11  1  1  0  0  0
  1  2  2  0  0  0
  2  3  1  0  0  0
  3  4  2  0  0  0
  4  5  1  0  0  0
  4  6  1  0  0  0
  6 21  1  0  0  0
  6  7  2  0  0  0
 21 22  1  0  0  0
 22 23  1  0  0  0
 23 24  2  0  0  0
 24 25  1  0  0  0
 25 26  2  0  0  0
 25 27  1  0  0  0
 27 28  1  0  0  0
 28 29  2  0  0  0
 29 30  1  0  0  0
 30 31  2  0  0  0
 31 32  1  0  0  0
 32 33  2  0  0  0
 32 27  1  0  0  0
 33 23  1  0  0  0
  7  1  1  0  0  0
 19 20  2  0  0  0
 20 15  1  0  0  0
  8 12  1  0  0  0
 11 13  1  0  0  0
M  END
>  <minimizedAffinity>
-9.93421

>  <minimizedRMSD>
1.06317

$$$$
ChemDiv-G756-1212 MCULE-9710101029 MolPort-007-879-670 PubChem-46356446 ZINC000033068057 ZINC33068057


 32 35  0  0  0  0  0  0  0  0999 V2000
   17.4728  -10.2518   14.3134 C   0  0  0  0  0  0  0  0  0  0  0  0
   16.8406   -9.5152   15.3220 C   0  0  0  0  0  0  0  0  0  0  0  0
   16.8132   -9.9660   16.6481 C   0  0  0  0  0  0  0  0  0  0  0  0
   17.4298  -11.1755   16.9692 C   0  0  0  0  0  0  0  0  0  0  0  0
   18.0676  -11.9252   15.9806 C   0  0  0  0  0  0  0  0  0  0  0  0
   18.0984  -11.4801   14.6555 C   0  0  0  0  0  0  0  0  0  0  0  0
   18.8077  -12.3432   13.6698 C   0  0  0  0  0  0  0  0  0  0  0  0
   16.1644   -9.2242   17.6898 N   0  0  0  0  0  0  0  0  0  0  0  0
   15.3020   -8.0873   17.5290 C   0  0  0  0  0  0  0  0  0  0  0  0
   15.0620   -7.6207   16.3822 O   0  0  0  0  0  0  0  0  0  0  0  0
   16.3273   -9.5262   18.6126 H   0  0  0  0  0  0  0  0  0  0  0  0
   14.6935   -7.4590   18.7150 C   0  0  0  0  0  0  0  0  0  0  0  0
   13.4811   -6.7613   18.6060 C   0  0  0  0  0  0  0  0  0  0  0  0
   12.9038   -6.1664   19.7317 C   0  0  0  0  0  0  0  0  0  0  0  0
   11.6192   -5.4300   19.6066 C   0  0  0  0  0  0  0  0  0  0  0  0
   13.5345   -6.2649   20.9748 C   0  0  0  0  0  0  0  0  0  0  0  0
   14.7424   -6.9577   21.0926 C   0  0  0  0  0  0  0  0  0  0  0  0
   15.3195   -7.5525   19.9667 C   0  0  0  0  0  0  0  0  0  0  0  0
   17.4369   -9.7061   13.0202 O   0  0  0  0  0  0  0  0  0  0  0  0
   18.5575   -9.2080   12.3032 C   0  0  0  0  0  0  0  0  0  0  0  0
   20.2819   -6.9637    5.5385 C   0  0  0  0  0  0  0  0  0  0  0  0
   19.3701   -7.6969    6.4541 C   0  0  0  0  0  0  0  0  0  0  0  0
   19.6515   -7.7593    7.8176 C   0  0  0  0  0  0  0  0  0  0  0  0
   18.7856   -8.4525    8.6667 C   0  0  0  0  0  0  0  0  0  0  0  0
   19.0617   -8.5123    9.9950 N   0  0  0  0  0  0  0  0  0  0  0  0
   18.2474   -9.1809   10.8497 C   0  0  0  0  0  0  0  0  0  0  0  0
   17.0998   -9.8057   10.3711 C   0  0  0  0  0  0  0  0  0  0  0  0
   16.8193   -9.7421    9.0071 C   0  0  0  0  0  0  0  0  0  0  0  0
   15.7814  -10.3115    8.5705 O   0  0  0  0  0  0  0  0  0  0  0  0
   17.6614   -9.0691    8.1628 N   0  0  0  0  0  0  0  0  0  0  0  0
   17.3850   -9.0073    6.8260 C   0  0  0  0  0  0  0  0  0  0  0  0
   18.2312   -8.3230    5.9516 C   0  0  0  0  0  0  0  0  0  0  0  0
 21 22  1  0  0  0
 22 23  2  0  0  0
 23 24  1  0  0  0
 24 25  2  0  0  0
 25 26  1  0  0  0
 26 20  1  0  0  0
 26 27  2  0  0  0
 20 19  1  0  0  0
 19  1  1  0  0  0
  1  2  2  0  0  0
  2  3  1  0  0  0
  3  8  1  0  0  0
  3  4  2  0  0  0
  8  9  1  0  0  0
  9 10  2  0  0  0
  9 12  1  0  0  0
 12 13  2  0  0  0
 13 14  1  0  0  0
 14 15  1  0  0  0
 14 16  2  0  0  0
 16 17  1  0  0  0
 17 18  2  0  0  0
 18 12  1  0  0  0
  4  5  1  0  0  0
  5  6  2  0  0  0
  6  7  1  0  0  0
  6  1  1  0  0  0
 27 28  1  0  0  0
 28 29  2  0  0  0
 28 30  1  0  0  0
 30 31  1  0  0  0
 30 24  1  0  0  0
 31 32  2  0  0  0
 32 22  1  0  0  0
  8 11  1  0  0  0
M  END
>  <minimizedAffinity>
-9.92681

>  <minimizedRMSD>
1.12998

$$$$
ChemDiv-F172-0365 MCULE-6549572909 MolPort-010-736-237 PubChem-50764218 ZINC000035378621


 34 37  0  0  0  0  0  0  0  0999 V2000
   17.4438  -10.2494   14.2377 C   0  0  0  0  0  0  0  0  0  0  0  0
   18.0799  -11.4795   14.5531 C   0  0  0  0  0  0  0  0  0  0  0  0
   18.7483  -12.3427   13.5392 C   0  0  0  0  0  0  0  0  0  0  0  0
   18.0958  -11.9291   15.8770 C   0  0  0  0  0  0  0  0  0  0  0  0
   17.4927  -11.1830   16.8898 C   0  0  0  0  0  0  0  0  0  0  0  0
   16.8614   -9.9747   16.5940 C   0  0  0  0  0  0  0  0  0  0  0  0
   16.8440   -9.5181   15.2697 C   0  0  0  0  0  0  0  0  0  0  0  0
   16.2541   -9.2335   17.6610 N   0  0  0  0  0  0  0  0  0  0  0  0
   15.4015   -8.0889   17.5317 C   0  0  0  0  0  0  0  0  0  0  0  0
   15.0627   -7.6492   16.4013 O   0  0  0  0  0  0  0  0  0  0  0  0
   16.4422   -9.5429   18.5765 H   0  0  0  0  0  0  0  0  0  0  0  0
   14.8695   -7.4363   18.7565 C   0  0  0  0  0  0  0  0  0  0  0  0
   13.4511   -7.5278   18.7658 O   0  0  0  0  0  0  0  0  0  0  0  0
   12.6342   -6.5773   19.3892 C   0  0  0  0  0  0  0  0  0  0  0  0
   13.1718   -5.6238   20.2703 C   0  0  0  0  0  0  0  0  0  0  0  0
   12.3434   -4.6809   20.8845 C   0  0  0  0  0  0  0  0  0  0  0  0
   12.9227   -3.6763   21.8137 C   0  0  0  0  0  0  0  0  0  0  0  0
   10.9715   -4.6817   20.6234 C   0  0  0  0  0  0  0  0  0  0  0  0
   10.4278   -5.6259   19.7489 C   0  0  0  0  0  0  0  0  0  0  0  0
   11.2524   -6.5724   19.1323 C   0  0  0  0  0  0  0  0  0  0  0  0
   10.6448   -7.5658   18.2038 C   0  0  0  0  0  0  0  0  0  0  0  0
   17.3673   -9.6966   12.9492 O   0  0  0  0  0  0  0  0  0  0  0  0
   18.4459   -9.1044   12.2396 C   0  0  0  0  0  0  0  0  0  0  0  0
   17.6345   -9.1774    8.1226 N   0  0  0  0  0  0  0  0  0  0  0  0
   17.5929   -9.0396    6.8368 O   0  0  0  0  0  0  0  0  0  0  0  0
   18.6040   -8.2816    6.4600 C   0  0  0  0  0  0  0  0  0  0  0  0
   19.3724   -7.8850    7.5598 C   0  0  0  0  0  0  0  0  0  0  0  0
   18.6867   -8.4999    8.5901 C   0  0  0  0  0  0  0  0  0  0  0  0
   18.9739   -8.4662    9.9144 N   0  0  0  0  0  0  0  0  0  0  0  0
   18.1668   -9.1493   10.7803 C   0  0  0  0  0  0  0  0  0  0  0  0
   17.0470   -9.8626   10.3047 C   0  0  0  0  0  0  0  0  0  0  0  0
   16.7913   -9.8666    8.9279 C   0  0  0  0  0  0  0  0  0  0  0  0
   15.8057  -10.4899    8.4544 O   0  0  0  0  0  0  0  0  0  0  0  0
   18.8768   -7.9048    5.0485 C   0  0  0  0  0  0  0  0  0  0  0  0
 24 25  1  0  0  0
 25 26  1  0  0  0
 26 27  2  0  0  0
 27 28  1  0  0  0
 28 29  2  0  0  0
 29 30  1  0  0  0
 30 23  1  0  0  0
 23 22  1  0  0  0
 22  1  1  0  0  0
  1  2  2  0  0  0
  2  3  1  0  0  0
  2  4  1  0  0  0
  4  5  2  0  0  0
  5  6  1  0  0  0
  6  7  2  0  0  0
  6  8  1  0  0  0
  8  9  1  0  0  0
  9 12  1  0  0  0
 12 13  1  0  0  0
 13 14  1  0  0  0
 14 15  2  0  0  0
 15 16  1  0  0  0
 16 17  1  0  0  0
 16 18  2  0  0  0
 18 19  1  0  0  0
 19 20  2  0  0  0
 20 21  1  0  0  0
  9 10  2  0  0  0
 30 31  2  0  0  0
 31 32  1  0  0  0
 32 33  2  0  0  0
 26 34  1  0  0  0
 28 24  1  0  0  0
  7  1  1  0  0  0
 20 14  1  0  0  0
 32 24  1  0  0  0
  8 11  1  0  0  0
M  END
>  <minimizedAffinity>
-9.92130

>  <minimizedRMSD>
0.86965

$$$$
ChemDiv-G756-1499 MCULE-9828067908 MolPort-007-879-868 PubChem-46356612 ZINC000033068168 ZINC33068168


 34 37  0  0  0  0  0  0  0  0999 V2000
   17.7473  -10.7409   13.9722 C   0  0  0  0  0  0  0  0  0  0  0  0
   18.2094  -11.9843   14.4134 C   0  0  0  0  0  0  0  0  0  0  0  0
   18.2987  -12.2580   15.7806 C   0  0  0  0  0  0  0  0  0  0  0  0
   17.9249  -11.2876   16.7144 C   0  0  0  0  0  0  0  0  0  0  0  0
   17.4603  -10.0386   16.2900 C   0  0  0  0  0  0  0  0  0  0  0  0
   17.3736   -9.7707   14.9157 C   0  0  0  0  0  0  0  0  0  0  0  0
   17.0839   -9.0695   17.2781 N   0  0  0  0  0  0  0  0  0  0  0  0
   15.7539   -8.6457   17.6031 C   0  0  0  0  0  0  0  0  0  0  0  0
   14.7598   -9.1229   16.9925 O   0  0  0  0  0  0  0  0  0  0  0  0
   15.5771   -7.6676   18.6358 N   0  0  0  0  0  0  0  0  0  0  0  0
   17.8161   -8.6515   17.7865 H   0  0  0  0  0  0  0  0  0  0  0  0
   16.3951   -7.3356   19.0716 H   0  0  0  0  0  0  0  0  0  0  0  0
   14.3345   -7.1202   19.1026 C   0  0  0  0  0  0  0  0  0  0  0  0
   13.2830   -6.8212   18.2221 C   0  0  0  0  0  0  0  0  0  0  0  0
   12.0841   -6.2893   18.7041 C   0  0  0  0  0  0  0  0  0  0  0  0
   11.0759   -6.0048   17.8457 F   0  0  0  0  0  0  0  0  0  0  0  0
   11.9261   -6.0511   20.0711 C   0  0  0  0  0  0  0  0  0  0  0  0
   12.9671   -6.3453   20.9551 C   0  0  0  0  0  0  0  0  0  0  0  0
   14.1675   -6.8781   20.4745 C   0  0  0  0  0  0  0  0  0  0  0  0
   15.1676   -7.1581   21.3463 F   0  0  0  0  0  0  0  0  0  0  0  0
   17.6685  -10.4957   12.5990 O   0  0  0  0  0  0  0  0  0  0  0  0
   16.9105   -9.4235   12.0539 C   0  0  0  0  0  0  0  0  0  0  0  0
   19.3624   -7.9740    4.7012 C   0  0  0  0  0  0  0  0  0  0  0  0
   19.0491   -8.0896    6.1490 C   0  0  0  0  0  0  0  0  0  0  0  0
   18.0723   -8.9847    6.5879 C   0  0  0  0  0  0  0  0  0  0  0  0
   17.7755   -9.0988    7.9170 N   0  0  0  0  0  0  0  0  0  0  0  0
   16.8162   -9.9831    8.3324 C   0  0  0  0  0  0  0  0  0  0  0  0
   16.1953  -10.7035    7.5032 O   0  0  0  0  0  0  0  0  0  0  0  0
   16.5121  -10.0999    9.6878 C   0  0  0  0  0  0  0  0  0  0  0  0
   17.1945   -9.3005   10.5999 C   0  0  0  0  0  0  0  0  0  0  0  0
   18.1470   -8.4379   10.1651 N   0  0  0  0  0  0  0  0  0  0  0  0
   18.4410   -8.3265    8.8438 C   0  0  0  0  0  0  0  0  0  0  0  0
   19.4246   -7.4226    8.4349 C   0  0  0  0  0  0  0  0  0  0  0  0
   19.7277   -7.3058    7.0797 C   0  0  0  0  0  0  0  0  0  0  0  0
 23 24  1  0  0  0
 24 25  2  0  0  0
 25 26  1  0  0  0
 26 27  1  0  0  0
 27 28  2  0  0  0
 27 29  1  0  0  0
 29 30  2  0  0  0
 30 22  1  0  0  0
 30 31  1  0  0  0
 22 21  1  0  0  0
 21  1  1  0  0  0
  1  2  2  0  0  0
  2  3  1  0  0  0
  3  4  2  0  0  0
  4  5  1  0  0  0
  5  7  1  0  0  0
  5  6  2  0  0  0
  7  8  1  0  0  0
  8  9  2  0  0  0
  8 10  1  0  0  0
 10 13  1  0  0  0
 13 14  2  0  0  0
 14 15  1  0  0  0
 15 16  1  0  0  0
 15 17  2  0  0  0
 17 18  1  0  0  0
 18 19  2  0  0  0
 19 20  1  0  0  0
 19 13  1  0  0  0
  6  1  1  0  0  0
 31 32  2  0  0  0
 32 33  1  0  0  0
 32 26  1  0  0  0
 33 34  2  0  0  0
 34 24  1  0  0  0
  7 11  1  0  0  0
 10 12  1  0  0  0
M  END
>  <minimizedAffinity>
-9.90615

>  <minimizedRMSD>
1.14540

$$$$
ChemDiv-D439-4226 MCULE-8808556488 MolPort-007-706-793 PubChem-46268375 ZINC000021797200 ZINC21797200


 33 36  0  0  0  0  0  0  0  0999 V2000
   17.1460   -9.8319   14.1924 C   0  0  0  0  0  0  0  0  0  0  0  0
   16.5859   -9.1565   15.2829 C   0  0  0  0  0  0  0  0  0  0  0  0
   16.8166   -9.5769   16.5994 C   0  0  0  0  0  0  0  0  0  0  0  0
   17.6210  -10.6937   16.8266 C   0  0  0  0  0  0  0  0  0  0  0  0
   18.1910  -11.3810   15.7550 C   0  0  0  0  0  0  0  0  0  0  0  0
   17.9653  -10.9653   14.4392 C   0  0  0  0  0  0  0  0  0  0  0  0
   18.6178  -11.7585   13.3600 C   0  0  0  0  0  0  0  0  0  0  0  0
   16.2461   -8.8967   17.7255 N   0  0  0  0  0  0  0  0  0  0  0  0
   15.1480   -7.9717   17.7085 C   0  0  0  0  0  0  0  0  0  0  0  0
   14.5916   -7.6557   16.6217 O   0  0  0  0  0  0  0  0  0  0  0  0
   16.6503   -9.0838   18.6035 H   0  0  0  0  0  0  0  0  0  0  0  0
   14.6700   -7.3832   18.9722 C   0  0  0  0  0  0  0  0  0  0  0  0
   13.4656   -6.6643   19.0108 C   0  0  0  0  0  0  0  0  0  0  0  0
   13.0136   -6.1061   20.2103 C   0  0  0  0  0  0  0  0  0  0  0  0
   13.7626   -6.2625   21.3797 C   0  0  0  0  0  0  0  0  0  0  0  0
   13.2810   -5.6708   22.6548 C   0  0  0  0  0  0  0  0  0  0  0  0
   14.9633   -6.9769   21.3502 C   0  0  0  0  0  0  0  0  0  0  0  0
   15.4154   -7.5347   20.1507 C   0  0  0  0  0  0  0  0  0  0  0  0
   16.8461   -9.3249   12.9177 O   0  0  0  0  0  0  0  0  0  0  0  0
   16.3006  -10.0721   11.8401 C   0  0  0  0  0  0  0  0  0  0  0  0
   18.6945   -8.1475    7.2866 N   0  0  0  0  0  0  0  0  0  0  0  0
   19.5942   -7.3489    7.9053 C   0  0  0  0  0  0  0  0  0  0  0  0
   19.4605   -7.4114    9.2585 N   0  0  0  0  0  0  0  0  0  0  0  0
   18.4465   -8.2874    9.4006 C   0  0  0  0  0  0  0  0  0  0  0  0
   17.9253   -8.7069   10.5795 N   0  0  0  0  0  0  0  0  0  0  0  0
   16.9090   -9.6196   10.5616 C   0  0  0  0  0  0  0  0  0  0  0  0
   16.4100  -10.1114    9.3389 C   0  0  0  0  0  0  0  0  0  0  0  0
   16.9810   -9.6516    8.1458 C   0  0  0  0  0  0  0  0  0  0  0  0
   16.5738  -10.0833    7.0357 O   0  0  0  0  0  0  0  0  0  0  0  0
   17.9846   -8.7369    8.2320 N   0  0  0  0  0  0  0  0  0  0  0  0
   18.5669   -8.3276    5.8450 C   0  0  0  0  0  0  0  0  0  0  0  0
   20.3376   -8.1379    4.0968 C   0  0  0  0  0  0  0  0  0  0  0  0
   19.4907   -7.3769    5.0984 C   0  0  0  0  0  0  0  0  0  0  0  0
 32 33  1  0  0  0
 33 31  1  0  0  0
 31 21  1  0  0  0
 21 22  1  0  0  0
 22 23  2  0  0  0
 23 24  1  0  0  0
 24 25  2  0  0  0
 25 26  1  0  0  0
 26 20  1  0  0  0
 26 27  2  0  0  0
 20 19  1  0  0  0
 19  1  1  0  0  0
  1  2  2  0  0  0
  2  3  1  0  0  0
  3  8  1  0  0  0
  3  4  2  0  0  0
  8  9  1  0  0  0
  9 10  2  0  0  0
  9 12  1  0  0  0
 12 13  2  0  0  0
 13 14  1  0  0  0
 14 15  2  0  0  0
 15 16  1  0  0  0
 15 17  1  0  0  0
 17 18  2  0  0  0
 18 12  1  0  0  0
  4  5  1  0  0  0
  5  6  2  0  0  0
  6  7  1  0  0  0
  6  1  1  0  0  0
 27 28  1  0  0  0
 28 29  2  0  0  0
 28 30  1  0  0  0
 30 21  1  0  0  0
 30 24  1  0  0  0
  8 11  1  0  0  0
M  END
>  <minimizedAffinity>
-9.88308

>  <minimizedRMSD>
1.73382

$$$$
ChemDiv-F172-0149 MCULE-8377703425 MolPort-010-736-206 PubChem-50764269 ZINC000035378584 ZINC35378584


 33 36  0  0  0  0  0  0  0  0999 V2000
   17.1802  -10.1646   16.4119 C   0  0  0  0  0  0  0  0  0  0  0  0
   17.3044   -9.6802   15.1008 C   0  0  0  0  0  0  0  0  0  0  0  0
   17.8925  -10.4636   14.1030 C   0  0  0  0  0  0  0  0  0  0  0  0
   18.3612  -11.7479   14.4222 C   0  0  0  0  0  0  0  0  0  0  0  0
   18.2383  -12.2371   15.7248 C   0  0  0  0  0  0  0  0  0  0  0  0
   17.6475  -11.4476   16.7148 C   0  0  0  0  0  0  0  0  0  0  0  0
   15.6673   -8.2890   17.2819 C   0  0  0  0  0  0  0  0  0  0  0  0
   15.3879   -7.8428   16.1376 O   0  0  0  0  0  0  0  0  0  0  0  0
   16.5699   -9.3891   17.4519 N   0  0  0  0  0  0  0  0  0  0  0  0
   16.7937   -9.6379   18.3778 H   0  0  0  0  0  0  0  0  0  0  0  0
   15.0316   -7.6758   18.4815 C   0  0  0  0  0  0  0  0  0  0  0  0
   14.0875   -6.6867   18.0837 O   0  0  0  0  0  0  0  0  0  0  0  0
   12.1364   -5.7389   19.1774 C   0  0  0  0  0  0  0  0  0  0  0  0
   12.7225   -6.7530   18.3959 C   0  0  0  0  0  0  0  0  0  0  0  0
   11.9270   -7.8213   17.9488 C   0  0  0  0  0  0  0  0  0  0  0  0
   10.5708   -7.8810   18.2768 C   0  0  0  0  0  0  0  0  0  0  0  0
    9.9971   -6.8763   19.0579 C   0  0  0  0  0  0  0  0  0  0  0  0
   10.7788   -5.8101   19.5082 C   0  0  0  0  0  0  0  0  0  0  0  0
   12.6942   -4.3809   21.1735 C   0  0  0  0  0  0  0  0  0  0  0  0
   12.9392   -4.5874   19.6897 C   0  0  0  0  0  0  0  0  0  0  0  0
   17.9957   -9.9458   12.8096 O   0  0  0  0  0  0  0  0  0  0  0  0
   16.8730   -9.4607   12.0850 C   0  0  0  0  0  0  0  0  0  0  0  0
   17.2337   -9.3064   10.6510 C   0  0  0  0  0  0  0  0  0  0  0  0
   16.5418  -10.0508    9.6733 C   0  0  0  0  0  0  0  0  0  0  0  0
   16.8813   -9.8669    8.3274 C   0  0  0  0  0  0  0  0  0  0  0  0
   16.2952  -10.5105    7.4180 O   0  0  0  0  0  0  0  0  0  0  0  0
   17.8582   -8.9755    8.0342 N   0  0  0  0  0  0  0  0  0  0  0  0
   18.3290   -8.6436    6.8758 O   0  0  0  0  0  0  0  0  0  0  0  0
   19.2677   -7.7333    7.0458 C   0  0  0  0  0  0  0  0  0  0  0  0
   20.0344   -7.1153    5.9326 C   0  0  0  0  0  0  0  0  0  0  0  0
   19.4376   -7.4336    8.4018 C   0  0  0  0  0  0  0  0  0  0  0  0
   18.4980   -8.2711    8.9719 C   0  0  0  0  0  0  0  0  0  0  0  0
   18.2028   -8.4140   10.2873 N   0  0  0  0  0  0  0  0  0  0  0  0
 19 20  1  0  0  0
 20 13  1  0  0  0
 13 14  2  0  0  0
 14 12  1  0  0  0
 14 15  1  0  0  0
 12 11  1  0  0  0
 11  7  1  0  0  0
  7  8  2  0  0  0
  7  9  1  0  0  0
  9  1  1  0  0  0
  1  2  2  0  0  0
  2  3  1  0  0  0
  3 21  1  0  0  0
  3  4  2  0  0  0
 21 22  1  0  0  0
 22 23  1  0  0  0
 23 24  2  0  0  0
 24 25  1  0  0  0
 25 26  2  0  0  0
 25 27  1  0  0  0
 27 28  1  0  0  0
 28 29  1  0  0  0
 29 30  1  0  0  0
 29 31  2  0  0  0
 31 32  1  0  0  0
 32 33  2  0  0  0
 32 27  1  0  0  0
 33 23  1  0  0  0
  4  5  1  0  0  0
  5  6  2  0  0  0
  6  1  1  0  0  0
 15 16  2  0  0  0
 16 17  1  0  0  0
 17 18  2  0  0  0
 18 13  1  0  0  0
  9 10  1  0  0  0
M  END
>  <minimizedAffinity>
-9.82759

>  <minimizedRMSD>
1.96081

$$$$
ChemDiv-G756-1213 MCULE-2382556165 MolPort-007-879-671 PubChem-46356447 ZINC000033068058 ZINC33068058


 32 35  0  0  0  0  0  0  0  0999 V2000
   17.4699  -10.2505   14.3111 C   0  0  0  0  0  0  0  0  0  0  0  0
   16.8286   -9.5307   15.3260 C   0  0  0  0  0  0  0  0  0  0  0  0
   16.8044   -9.9947   16.6476 C   0  0  0  0  0  0  0  0  0  0  0  0
   17.4335  -11.2007   16.9574 C   0  0  0  0  0  0  0  0  0  0  0  0
   18.0787  -11.9349   15.9621 C   0  0  0  0  0  0  0  0  0  0  0  0
   18.1059  -11.4767   14.6413 C   0  0  0  0  0  0  0  0  0  0  0  0
   18.8173  -12.3275   13.6463 C   0  0  0  0  0  0  0  0  0  0  0  0
   16.1507   -9.2678   17.6968 N   0  0  0  0  0  0  0  0  0  0  0  0
   15.3362   -8.0931   17.5554 C   0  0  0  0  0  0  0  0  0  0  0  0
   15.1322   -7.5935   16.4161 O   0  0  0  0  0  0  0  0  0  0  0  0
   16.2732   -9.6104   18.6116 H   0  0  0  0  0  0  0  0  0  0  0  0
   14.7373   -7.4731   18.7589 C   0  0  0  0  0  0  0  0  0  0  0  0
   13.4706   -6.8496   18.7305 C   0  0  0  0  0  0  0  0  0  0  0  0
   12.7383   -6.7900   17.5904 F   0  0  0  0  0  0  0  0  0  0  0  0
   12.9447   -6.2768   19.8930 C   0  0  0  0  0  0  0  0  0  0  0  0
   13.6659   -6.3165   21.0877 C   0  0  0  0  0  0  0  0  0  0  0  0
   14.9186   -6.9305   21.1254 C   0  0  0  0  0  0  0  0  0  0  0  0
   15.4496   -7.5047   19.9680 C   0  0  0  0  0  0  0  0  0  0  0  0
   17.4315   -9.6914   13.0235 O   0  0  0  0  0  0  0  0  0  0  0  0
   18.5517   -9.1939   12.3060 C   0  0  0  0  0  0  0  0  0  0  0  0
   20.2769   -6.9657    5.5363 C   0  0  0  0  0  0  0  0  0  0  0  0
   19.3654   -7.6981    6.4533 C   0  0  0  0  0  0  0  0  0  0  0  0
   19.6460   -7.7561    7.8170 C   0  0  0  0  0  0  0  0  0  0  0  0
   18.7811   -8.4491    8.6673 C   0  0  0  0  0  0  0  0  0  0  0  0
   19.0563   -8.5043    9.9960 N   0  0  0  0  0  0  0  0  0  0  0  0
   18.2430   -9.1721   10.8521 C   0  0  0  0  0  0  0  0  0  0  0  0
   17.0973   -9.8012   10.3745 C   0  0  0  0  0  0  0  0  0  0  0  0
   16.8179   -9.7430    9.0100 C   0  0  0  0  0  0  0  0  0  0  0  0
   15.7823  -10.3170    8.5740 O   0  0  0  0  0  0  0  0  0  0  0  0
   17.6589   -9.0700    8.1643 N   0  0  0  0  0  0  0  0  0  0  0  0
   17.3837   -9.0132    6.8268 C   0  0  0  0  0  0  0  0  0  0  0  0
   18.2289   -8.3290    5.9513 C   0  0  0  0  0  0  0  0  0  0  0  0
 21 22  1  0  0  0
 22 23  2  0  0  0
 23 24  1  0  0  0
 24 25  2  0  0  0
 25 26  1  0  0  0
 26 20  1  0  0  0
 26 27  2  0  0  0
 20 19  1  0  0  0
 19  1  1  0  0  0
  1  2  2  0  0  0
  2  3  1  0  0  0
  3  8  1  0  0  0
  3  4  2  0  0  0
  8  9  1  0  0  0
  9 10  2  0  0  0
  9 12  1  0  0  0
 12 13  2  0  0  0
 13 14  1  0  0  0
 13 15  1  0  0  0
 15 16  2  0  0  0
 16 17  1  0  0  0
 17 18  2  0  0  0
 18 12  1  0  0  0
  4  5  1  0  0  0
  5  6  2  0  0  0
  6  7  1  0  0  0
  6  1  1  0  0  0
 27 28  1  0  0  0
 28 29  2  0  0  0
 28 30  1  0  0  0
 30 31  1  0  0  0
 30 24  1  0  0  0
 31 32  2  0  0  0
 32 22  1  0  0  0
  8 11  1  0  0  0
M  END
>  <minimizedAffinity>
-9.79912

>  <minimizedRMSD>
1.17708

$$$$
ChemDiv-G756-0402 MCULE-4221768282 MolPort-007-879-132 PubChem-46355999 ZINC000033067811 ZINC33067811


 36 39  0  0  0  0  0  0  0  0999 V2000
   17.0530   -9.5035   16.5978 C   0  0  0  0  0  0  0  0  0  0  0  0
   17.5224  -10.7519   17.0071 C   0  0  0  0  0  0  0  0  0  0  0  0
   18.0133  -11.6621   16.0704 C   0  0  0  0  0  0  0  0  0  0  0  0
   18.0434  -11.3400   14.7102 C   0  0  0  0  0  0  0  0  0  0  0  0
   18.5929  -12.3700   13.7845 C   0  0  0  0  0  0  0  0  0  0  0  0
   17.5695  -10.0725   14.2790 C   0  0  0  0  0  0  0  0  0  0  0  0
   17.0830   -9.1746   15.2365 C   0  0  0  0  0  0  0  0  0  0  0  0
   14.9234   -7.1840   18.7785 N   0  0  0  0  0  0  0  0  0  0  0  0
   15.2105   -8.1434   17.7530 C   0  0  0  0  0  0  0  0  0  0  0  0
   14.2939   -8.5833   17.0079 O   0  0  0  0  0  0  0  0  0  0  0  0
   16.5625   -8.5903   17.5896 N   0  0  0  0  0  0  0  0  0  0  0  0
   15.6940   -6.8490   19.2916 H   0  0  0  0  0  0  0  0  0  0  0  0
   17.2242   -8.2329   18.2248 H   0  0  0  0  0  0  0  0  0  0  0  0
   13.3668   -6.2820   20.4835 C   0  0  0  0  0  0  0  0  0  0  0  0
   13.6365   -6.6560   19.1421 C   0  0  0  0  0  0  0  0  0  0  0  0
   12.6259   -6.5160   18.1771 C   0  0  0  0  0  0  0  0  0  0  0  0
   11.3707   -6.0139   18.5196 C   0  0  0  0  0  0  0  0  0  0  0  0
   11.1061   -5.6455   19.8367 C   0  0  0  0  0  0  0  0  0  0  0  0
   12.0975   -5.7798   20.8089 C   0  0  0  0  0  0  0  0  0  0  0  0
   14.3666   -6.3918   21.5729 C   0  0  0  0  0  0  0  0  0  0  0  0
   14.8787   -7.5051   21.8731 O   0  0  0  0  0  0  0  0  0  0  0  0
   14.8397   -5.2215   23.6889 C   0  0  0  0  0  0  0  0  0  0  0  0
   14.7456   -5.2425   22.2727 O   0  0  0  0  0  0  0  0  0  0  0  0
   17.5530   -9.6376   12.9441 O   0  0  0  0  0  0  0  0  0  0  0  0
   16.4576   -9.7634   12.0482 C   0  0  0  0  0  0  0  0  0  0  0  0
   16.9238   -9.5313   10.6559 C   0  0  0  0  0  0  0  0  0  0  0  0
   16.3133  -10.1966    9.5970 C   0  0  0  0  0  0  0  0  0  0  0  0
   16.7508   -9.9379    8.2989 C   0  0  0  0  0  0  0  0  0  0  0  0
   16.2023  -10.5440    7.3377 O   0  0  0  0  0  0  0  0  0  0  0  0
   17.7594   -9.0376    8.0801 N   0  0  0  0  0  0  0  0  0  0  0  0
   18.1861   -8.7831    6.8070 C   0  0  0  0  0  0  0  0  0  0  0  0
   19.2102   -7.8654    6.5663 C   0  0  0  0  0  0  0  0  0  0  0  0
   19.8008   -7.2036    7.6410 C   0  0  0  0  0  0  0  0  0  0  0  0
   19.3651   -7.4630    8.9392 C   0  0  0  0  0  0  0  0  0  0  0  0
   18.3385   -8.3870    9.1475 C   0  0  0  0  0  0  0  0  0  0  0  0
   17.9148   -8.6374   10.4133 N   0  0  0  0  0  0  0  0  0  0  0  0
 22 23  1  0  0  0
 23 20  1  0  0  0
 20 21  2  0  0  0
 20 14  1  0  0  0
 14 15  2  0  0  0
 15  8  1  0  0  0
 15 16  1  0  0  0
  8  9  1  0  0  0
  9 10  2  0  0  0
  9 11  1  0  0  0
 11  1  1  0  0  0
  1  2  2  0  0  0
  2  3  1  0  0  0
  3  4  2  0  0  0
  4  5  1  0  0  0
  4  6  1  0  0  0
  6 24  1  0  0  0
  6  7  2  0  0  0
 24 25  1  0  0  0
 25 26  1  0  0  0
 26 27  2  0  0  0
 27 28  1  0  0  0
 28 29  2  0  0  0
 28 30  1  0  0  0
 30 31  1  0  0  0
 31 32  2  0  0  0
 32 33  1  0  0  0
 33 34  2  0  0  0
 34 35  1  0  0  0
 35 36  2  0  0  0
 35 30  1  0  0  0
 36 26  1  0  0  0
  7  1  1  0  0  0
 16 17  2  0  0  0
 17 18  1  0  0  0
 18 19  2  0  0  0
 19 14  1  0  0  0
  8 12  1  0  0  0
 11 13  1  0  0  0
M  END
>  <minimizedAffinity>
-9.78146

>  <minimizedRMSD>
1.56437

$$$$
ChemDiv-G756-0417 MCULE-2900462069 MolPort-007-879-144 PubChem-46356011 ZINC000033067813 ZINC33067813


 33 36  0  0  0  0  0  0  0  0999 V2000
   17.0427   -9.7117   16.6212 C   0  0  0  0  0  0  0  0  0  0  0  0
   17.5621  -10.9022   17.1396 C   0  0  0  0  0  0  0  0  0  0  0  0
   18.0343  -11.8990   16.2829 C   0  0  0  0  0  0  0  0  0  0  0  0
   17.9950  -11.7131   14.8978 C   0  0  0  0  0  0  0  0  0  0  0  0
   18.5017  -12.7945   14.0079 C   0  0  0  0  0  0  0  0  0  0  0  0
   17.4795  -10.5219   14.3609 C   0  0  0  0  0  0  0  0  0  0  0  0
   17.0049   -9.5274   15.2316 C   0  0  0  0  0  0  0  0  0  0  0  0
   14.9422   -7.1862   18.5937 N   0  0  0  0  0  0  0  0  0  0  0  0
   15.2198   -8.2274   17.6477 C   0  0  0  0  0  0  0  0  0  0  0  0
   14.3051   -8.6887   16.9138 O   0  0  0  0  0  0  0  0  0  0  0  0
   16.5639   -8.7129   17.5322 N   0  0  0  0  0  0  0  0  0  0  0  0
   15.7182   -6.7675   19.0316 H   0  0  0  0  0  0  0  0  0  0  0  0
   17.2283   -8.3191   18.1427 H   0  0  0  0  0  0  0  0  0  0  0  0
   11.9422   -5.4760   22.1228 C   0  0  0  0  0  0  0  0  0  0  0  0
   12.1684   -5.8659   20.7047 C   0  0  0  0  0  0  0  0  0  0  0  0
   11.1241   -5.7765   19.7775 C   0  0  0  0  0  0  0  0  0  0  0  0
   11.3362   -6.1489   18.4457 C   0  0  0  0  0  0  0  0  0  0  0  0
   12.5935   -6.6074   18.0415 C   0  0  0  0  0  0  0  0  0  0  0  0
   13.6487   -6.6936   18.9660 C   0  0  0  0  0  0  0  0  0  0  0  0
   13.4250   -6.3264   20.2992 C   0  0  0  0  0  0  0  0  0  0  0  0
   17.4463  -10.3438   12.9730 O   0  0  0  0  0  0  0  0  0  0  0  0
   16.7156   -9.2946   12.3490 C   0  0  0  0  0  0  0  0  0  0  0  0
   17.0483   -9.2481   10.9000 C   0  0  0  0  0  0  0  0  0  0  0  0
   16.4148  -10.1167   10.0166 C   0  0  0  0  0  0  0  0  0  0  0  0
   16.7464  -10.0613    8.6646 C   0  0  0  0  0  0  0  0  0  0  0  0
   16.1680  -10.8461    7.8632 O   0  0  0  0  0  0  0  0  0  0  0  0
   17.6860   -9.1680    8.2239 N   0  0  0  0  0  0  0  0  0  0  0  0
   18.0081   -9.1126    6.8976 C   0  0  0  0  0  0  0  0  0  0  0  0
   18.9662   -8.2103    6.4317 C   0  0  0  0  0  0  0  0  0  0  0  0
   19.5981   -7.3573    7.3349 C   0  0  0  0  0  0  0  0  0  0  0  0
   19.2691   -7.4140    8.6878 C   0  0  0  0  0  0  0  0  0  0  0  0
   18.3064   -8.3279    9.1233 C   0  0  0  0  0  0  0  0  0  0  0  0
   17.9836   -8.3776   10.4420 N   0  0  0  0  0  0  0  0  0  0  0  0
 14 15  1  0  0  0
 15 16  2  0  0  0
 16 17  1  0  0  0
 17 18  2  0  0  0
 18 19  1  0  0  0
 19  8  1  0  0  0
 19 20  2  0  0  0
  8  9  1  0  0  0
  9 10  2  0  0  0
  9 11  1  0  0  0
 11  1  1  0  0  0
  1  2  2  0  0  0
  2  3  1  0  0  0
  3  4  2  0  0  0
  4  5  1  0  0  0
  4  6  1  0  0  0
  6 21  1  0  0  0
  6  7  2  0  0  0
 21 22  1  0  0  0
 22 23  1  0  0  0
 23 24  2  0  0  0
 24 25  1  0  0  0
 25 26  2  0  0  0
 25 27  1  0  0  0
 27 28  1  0  0  0
 28 29  2  0  0  0
 29 30  1  0  0  0
 30 31  2  0  0  0
 31 32  1  0  0  0
 32 33  2  0  0  0
 32 27  1  0  0  0
 33 23  1  0  0  0
  7  1  1  0  0  0
 20 15  1  0  0  0
  8 12  1  0  0  0
 11 13  1  0  0  0
M  END
>  <minimizedAffinity>
-9.76091

>  <minimizedRMSD>
0.96047

$$$$
ChemDiv-G795-0345 MCULE-7025495832 MolPort-010-745-015 PubChem-53030366 ZINC000035447625


 31 34  0  0  0  0  0  0  0  0999 V2000
   17.3346   -9.7667   14.1158 C   0  0  0  0  0  0  0  0  0  0  0  0
   18.1042  -10.7538   14.7707 C   0  0  0  0  0  0  0  0  0  0  0  0
   19.0957  -11.5974   14.0446 C   0  0  0  0  0  0  0  0  0  0  0  0
   17.9989  -10.9076   16.1561 C   0  0  0  0  0  0  0  0  0  0  0  0
   17.1489  -10.0841   16.8966 C   0  0  0  0  0  0  0  0  0  0  0  0
   16.4030   -9.0841   16.2614 C   0  0  0  0  0  0  0  0  0  0  0  0
   16.5092   -8.9288   14.8728 C   0  0  0  0  0  0  0  0  0  0  0  0
   16.3566   -9.8126   11.7685 C   0  0  0  0  0  0  0  0  0  0  0  0
   15.1884  -10.0397   12.1850 O   0  0  0  0  0  0  0  0  0  0  0  0
   17.4096   -9.5447   12.7019 N   0  0  0  0  0  0  0  0  0  0  0  0
   18.2509   -9.1795   12.3440 H   0  0  0  0  0  0  0  0  0  0  0  0
   16.6098   -9.7774   10.3143 C   0  0  0  0  0  0  0  0  0  0  0  0
   17.6486   -9.0377    9.6896 C   0  0  0  0  0  0  0  0  0  0  0  0
   18.6079   -8.2249   10.3042 C   0  0  0  0  0  0  0  0  0  0  0  0
   19.5612   -7.5730    9.5030 C   0  0  0  0  0  0  0  0  0  0  0  0
   19.5520   -7.7351    8.1038 C   0  0  0  0  0  0  0  0  0  0  0  0
   18.5904   -8.5509    7.4886 C   0  0  0  0  0  0  0  0  0  0  0  0
   17.6625   -9.1807    8.3113 C   0  0  0  0  0  0  0  0  0  0  0  0
   16.4121  -10.2008    7.9261 S   0  0  0  0  0  0  0  0  0  0  0  0
   15.8219  -10.4901    9.4585 N   0  0  0  0  0  0  0  0  0  0  0  0
   15.5180   -8.2041   17.0445 C   0  0  0  0  0  0  0  0  0  0  0  0
   14.6573   -7.4915   16.4586 O   0  0  0  0  0  0  0  0  0  0  0  0
   15.6340   -8.1568   18.4687 N   0  0  0  0  0  0  0  0  0  0  0  0
   16.3091   -8.7203   18.9113 H   0  0  0  0  0  0  0  0  0  0  0  0
   14.7856   -7.3020   19.2836 C   0  0  0  0  0  0  0  0  0  0  0  0
   15.3417   -7.2068   20.6601 C   0  0  0  0  0  0  0  0  0  0  0  0
   14.6241   -7.7089   21.7479 C   0  0  0  0  0  0  0  0  0  0  0  0
   15.1658   -7.6315   23.0323 C   0  0  0  0  0  0  0  0  0  0  0  0
   16.4263   -7.0549   23.2071 C   0  0  0  0  0  0  0  0  0  0  0  0
   17.1140   -6.5788   22.1340 N   0  0  0  0  0  0  0  0  0  0  0  0
   16.6030   -6.6449   20.8749 C   0  0  0  0  0  0  0  0  0  0  0  0
 12 13  1  0  0  0
 13 14  2  0  0  0
 14 15  1  0  0  0
 15 16  2  0  0  0
 16 17  1  0  0  0
 17 18  2  0  0  0
 18 19  1  0  0  0
 19 20  1  0  0  0
 12  8  1  0  0  0
  8  9  2  0  0  0
  8 10  1  0  0  0
 10  1  1  0  0  0
  1  2  2  0  0  0
  2  3  1  0  0  0
  2  4  1  0  0  0
  4  5  2  0  0  0
  5  6  1  0  0  0
  6  7  2  0  0  0
  6 21  1  0  0  0
 21 22  2  0  0  0
 21 23  1  0  0  0
 23 25  1  0  0  0
 25 26  1  0  0  0
 26 27  2  0  0  0
 27 28  1  0  0  0
 28 29  2  0  0  0
 29 30  1  0  0  0
 30 31  2  0  0  0
 20 12  2  0  0  0
  7  1  1  0  0  0
 31 26  1  0  0  0
 18 13  1  0  0  0
 10 11  1  0  0  0
 23 24  1  0  0  0
M  END
>  <minimizedAffinity>
-9.75354

>  <minimizedRMSD>
1.23375

$$$$
ChemDiv-G756-0151 MCULE-1085199716 MolPort-010-744-605 PubChem-50802155 ZINC000033268519 ZINC33268519


 33 36  0  0  0  0  0  0  0  0999 V2000
   16.7598   -9.6688   17.0308 C   0  0  0  0  0  0  0  0  0  0  0  0
   16.8119   -9.2695   15.6866 C   0  0  0  0  0  0  0  0  0  0  0  0
   17.4532  -10.0628   14.7301 C   0  0  0  0  0  0  0  0  0  0  0  0
   18.0495  -11.2706   15.1249 C   0  0  0  0  0  0  0  0  0  0  0  0
   18.0015  -11.6743   16.4613 C   0  0  0  0  0  0  0  0  0  0  0  0
   17.3584  -10.8748   17.4098 C   0  0  0  0  0  0  0  0  0  0  0  0
   15.0441   -7.9353   17.8319 C   0  0  0  0  0  0  0  0  0  0  0  0
   14.5787   -7.7302   16.6776 O   0  0  0  0  0  0  0  0  0  0  0  0
   16.1095   -8.8767   18.0338 N   0  0  0  0  0  0  0  0  0  0  0  0
   16.4271   -8.9902   18.9587 H   0  0  0  0  0  0  0  0  0  0  0  0
   13.4279   -5.7981   21.1924 C   0  0  0  0  0  0  0  0  0  0  0  0
   14.6002   -6.5635   21.3235 C   0  0  0  0  0  0  0  0  0  0  0  0
   15.1249   -7.2579   20.2307 C   0  0  0  0  0  0  0  0  0  0  0  0
   14.4894   -7.2023   18.9837 C   0  0  0  0  0  0  0  0  0  0  0  0
   13.3208   -6.4417   18.8453 C   0  0  0  0  0  0  0  0  0  0  0  0
   12.7957   -5.7472   19.9379 C   0  0  0  0  0  0  0  0  0  0  0  0
   13.3730   -5.5169   23.7062 C   0  0  0  0  0  0  0  0  0  0  0  0
   12.8386   -5.0352   22.3643 C   0  0  0  0  0  0  0  0  0  0  0  0
   13.1675   -3.5584   22.2356 C   0  0  0  0  0  0  0  0  0  0  0  0
   11.3290   -5.1989   22.3790 C   0  0  0  0  0  0  0  0  0  0  0  0
   17.4829   -9.6297   13.4021 O   0  0  0  0  0  0  0  0  0  0  0  0
   18.5044  -10.0150   12.4917 C   0  0  0  0  0  0  0  0  0  0  0  0
   18.1090   -9.6362   11.1095 C   0  0  0  0  0  0  0  0  0  0  0  0
   16.8989  -10.0806   10.5853 C   0  0  0  0  0  0  0  0  0  0  0  0
   16.5401   -9.6883    9.2967 C   0  0  0  0  0  0  0  0  0  0  0  0
   15.4454  -10.0937    8.8178 O   0  0  0  0  0  0  0  0  0  0  0  0
   17.3681   -8.8746    8.5704 N   0  0  0  0  0  0  0  0  0  0  0  0
   17.0154   -8.4905    7.3071 C   0  0  0  0  0  0  0  0  0  0  0  0
   17.8463   -7.6588    6.5542 C   0  0  0  0  0  0  0  0  0  0  0  0
   19.0488   -7.2177    7.1028 C   0  0  0  0  0  0  0  0  0  0  0  0
   19.4084   -7.6095    8.3909 C   0  0  0  0  0  0  0  0  0  0  0  0
   18.5559   -8.4429    9.1188 C   0  0  0  0  0  0  0  0  0  0  0  0
   18.9083   -8.8233   10.3740 N   0  0  0  0  0  0  0  0  0  0  0  0
 17 18  1  0  0  0
 18 19  1  0  0  0
 18 20  1  0  0  0
 18 11  1  0  0  0
 11 12  2  0  0  0
 12 13  1  0  0  0
 13 14  2  0  0  0
 14 15  1  0  0  0
 14  7  1  0  0  0
 15 16  2  0  0  0
 16 11  1  0  0  0
  7  8  2  0  0  0
  7  9  1  0  0  0
  9  1  1  0  0  0
  1  2  2  0  0  0
  2  3  1  0  0  0
  3 21  1  0  0  0
  3  4  2  0  0  0
 21 22  1  0  0  0
 22 23  1  0  0  0
 23 24  2  0  0  0
 24 25  1  0  0  0
 25 26  2  0  0  0
 25 27  1  0  0  0
 27 28  1  0  0  0
 28 29  2  0  0  0
 29 30  1  0  0  0
 30 31  2  0  0  0
 31 32  1  0  0  0
 32 33  2  0  0  0
 32 27  1  0  0  0
 33 23  1  0  0  0
  4  5  1  0  0  0
  5  6  2  0  0  0
  6  1  1  0  0  0
  9 10  1  0  0  0
M  END
>  <minimizedAffinity>
-9.73924

>  <minimizedRMSD>
0.84364

$$$$
ChemDiv-G756-1211 MCULE-8082861316 MolPort-007-879-669 PubChem-46356445 ZINC000033068056 ZINC33068056


 32 35  0  0  0  0  0  0  0  0999 V2000
   17.4401  -10.2060   14.3518 C   0  0  0  0  0  0  0  0  0  0  0  0
   16.8176   -9.4909   15.3815 C   0  0  0  0  0  0  0  0  0  0  0  0
   16.7882   -9.9776   16.6948 C   0  0  0  0  0  0  0  0  0  0  0  0
   17.3928  -11.2018   16.9811 C   0  0  0  0  0  0  0  0  0  0  0  0
   18.0191  -11.9317   15.9706 C   0  0  0  0  0  0  0  0  0  0  0  0
   18.0514  -11.4508   14.6580 C   0  0  0  0  0  0  0  0  0  0  0  0
   18.7416  -12.2984   13.6456 C   0  0  0  0  0  0  0  0  0  0  0  0
   16.1542   -9.2555   17.7595 N   0  0  0  0  0  0  0  0  0  0  0  0
   15.3372   -8.0796   17.6402 C   0  0  0  0  0  0  0  0  0  0  0  0
   15.1143   -7.5782   16.5057 O   0  0  0  0  0  0  0  0  0  0  0  0
   16.2938   -9.6029   18.6700 H   0  0  0  0  0  0  0  0  0  0  0  0
   14.7624   -7.4667   18.8656 C   0  0  0  0  0  0  0  0  0  0  0  0
   13.4463   -6.9387   18.9362 C   0  0  0  0  0  0  0  0  0  0  0  0
   12.5050   -6.9480   17.7792 C   0  0  0  0  0  0  0  0  0  0  0  0
   12.9837   -6.3782   20.1319 C   0  0  0  0  0  0  0  0  0  0  0  0
   13.8035   -6.3319   21.2598 C   0  0  0  0  0  0  0  0  0  0  0  0
   15.0971   -6.8475   21.2006 C   0  0  0  0  0  0  0  0  0  0  0  0
   15.5699   -7.4092   20.0134 C   0  0  0  0  0  0  0  0  0  0  0  0
   17.4092   -9.6234   13.0745 O   0  0  0  0  0  0  0  0  0  0  0  0
   18.5421   -9.1753   12.3440 C   0  0  0  0  0  0  0  0  0  0  0  0
   20.2308   -6.9923    5.5506 C   0  0  0  0  0  0  0  0  0  0  0  0
   19.3244   -7.7186    6.4773 C   0  0  0  0  0  0  0  0  0  0  0  0
   19.6126   -7.7681    7.8397 C   0  0  0  0  0  0  0  0  0  0  0  0
   18.7519   -8.4546    8.6993 C   0  0  0  0  0  0  0  0  0  0  0  0
   19.0346   -8.5016   10.0268 N   0  0  0  0  0  0  0  0  0  0  0  0
   18.2256   -9.1632   10.8918 C   0  0  0  0  0  0  0  0  0  0  0  0
   17.0765   -9.7938   10.4247 C   0  0  0  0  0  0  0  0  0  0  0  0
   16.7892   -9.7438    9.0616 C   0  0  0  0  0  0  0  0  0  0  0  0
   15.7501  -10.3188    8.6353 O   0  0  0  0  0  0  0  0  0  0  0  0
   17.6261   -9.0775    8.2068 N   0  0  0  0  0  0  0  0  0  0  0  0
   17.3435   -9.0290    6.8705 C   0  0  0  0  0  0  0  0  0  0  0  0
   18.1845   -8.3516    5.9857 C   0  0  0  0  0  0  0  0  0  0  0  0
 21 22  1  0  0  0
 22 23  2  0  0  0
 23 24  1  0  0  0
 24 25  2  0  0  0
 25 26  1  0  0  0
 26 20  1  0  0  0
 26 27  2  0  0  0
 20 19  1  0  0  0
 19  1  1  0  0  0
  1  2  2  0  0  0
  2  3  1  0  0  0
  3  8  1  0  0  0
  3  4  2  0  0  0
  8  9  1  0  0  0
  9 10  2  0  0  0
  9 12  1  0  0  0
 12 13  2  0  0  0
 13 14  1  0  0  0
 13 15  1  0  0  0
 15 16  2  0  0  0
 16 17  1  0  0  0
 17 18  2  0  0  0
 18 12  1  0  0  0
  4  5  1  0  0  0
  5  6  2  0  0  0
  6  7  1  0  0  0
  6  1  1  0  0  0
 27 28  1  0  0  0
 28 29  2  0  0  0
 28 30  1  0  0  0
 30 31  1  0  0  0
 30 24  1  0  0  0
 31 32  2  0  0  0
 32 22  1  0  0  0
  8 11  1  0  0  0
M  END
>  <minimizedAffinity>
-9.72721

>  <minimizedRMSD>
1.22457

$$$$
ChemDiv-G795-0347 MCULE-6592541840 MolPort-010-847-417 PubChem-53091460


 28 30  0  0  0  0  0  0  0  0999 V2000
   17.3379   -9.9925   13.8642 C   0  0  0  0  0  0  0  0  0  0  0  0
   17.9541  -11.1021   14.4844 C   0  0  0  0  0  0  0  0  0  0  0  0
   18.8117  -12.0582   13.7278 C   0  0  0  0  0  0  0  0  0  0  0  0
   17.8266  -11.2832   15.8645 C   0  0  0  0  0  0  0  0  0  0  0  0
   17.1055  -10.3682   16.6341 C   0  0  0  0  0  0  0  0  0  0  0  0
   16.5146   -9.2499   16.0341 C   0  0  0  0  0  0  0  0  0  0  0  0
   16.6433   -9.0674   14.6508 C   0  0  0  0  0  0  0  0  0  0  0  0
   16.3758   -9.8700   11.5136 C   0  0  0  0  0  0  0  0  0  0  0  0
   15.1875   -9.9828   11.9201 O   0  0  0  0  0  0  0  0  0  0  0  0
   17.4454   -9.7395   12.4577 N   0  0  0  0  0  0  0  0  0  0  0  0
   18.3225   -9.4539   12.1135 H   0  0  0  0  0  0  0  0  0  0  0  0
   16.6406   -9.8281   10.0618 C   0  0  0  0  0  0  0  0  0  0  0  0
   17.6450   -9.0375    9.4431 C   0  0  0  0  0  0  0  0  0  0  0  0
   18.5528   -8.1707   10.0621 C   0  0  0  0  0  0  0  0  0  0  0  0
   19.4782   -7.4733    9.2666 C   0  0  0  0  0  0  0  0  0  0  0  0
   19.4926   -7.6441    7.8684 C   0  0  0  0  0  0  0  0  0  0  0  0
   18.5826   -8.5139    7.2488 C   0  0  0  0  0  0  0  0  0  0  0  0
   17.6811   -9.1876    8.0660 C   0  0  0  0  0  0  0  0  0  0  0  0
   16.4901  -10.2744    7.6745 S   0  0  0  0  0  0  0  0  0  0  0  0
   15.9001  -10.5860    9.2025 N   0  0  0  0  0  0  0  0  0  0  0  0
   15.7659   -8.2768   16.8482 C   0  0  0  0  0  0  0  0  0  0  0  0
   15.1148   -7.3530   16.2873 O   0  0  0  0  0  0  0  0  0  0  0  0
   15.7792   -8.3769   18.2760 N   0  0  0  0  0  0  0  0  0  0  0  0
   16.3158   -9.0888   18.6936 H   0  0  0  0  0  0  0  0  0  0  0  0
   15.0320   -7.4696   19.1378 C   0  0  0  0  0  0  0  0  0  0  0  0
   15.2188   -7.8653   20.5913 C   0  0  0  0  0  0  0  0  0  0  0  0
   13.5506   -7.4431   18.7615 C   0  0  0  0  0  0  0  0  0  0  0  0
   12.6522   -7.8527   19.9194 C   0  0  0  0  0  0  0  0  0  0  0  0
 12 13  1  0  0  0
 13 14  2  0  0  0
 14 15  1  0  0  0
 15 16  2  0  0  0
 16 17  1  0  0  0
 17 18  2  0  0  0
 18 19  1  0  0  0
 19 20  1  0  0  0
 12  8  1  0  0  0
  8  9  2  0  0  0
  8 10  1  0  0  0
 10  1  1  0  0  0
  1  2  2  0  0  0
  2  3  1  0  0  0
  2  4  1  0  0  0
  4  5  2  0  0  0
  5  6  1  0  0  0
  6  7  2  0  0  0
  6 21  1  0  0  0
 21 22  2  0  0  0
 21 23  1  0  0  0
 23 25  1  0  0  0
 25 26  1  0  0  0
 25 27  1  0  0  0
 27 28  1  0  0  0
 20 12  2  0  0  0
  7  1  1  0  0  0
 18 13  1  0  0  0
 10 11  1  0  0  0
 23 24  1  0  0  0
M  END
>  <minimizedAffinity>
-9.69408

>  <minimizedRMSD>
0.75165

$$$$
ChemDiv-G756-2279 MCULE-6304476338 MolPort-007-879-993 PubChem-46356727 ZINC000033068253 ZINC33068253


 34 37  0  0  0  0  0  0  0  0999 V2000
   16.9356  -10.1563   16.5467 C   0  0  0  0  0  0  0  0  0  0  0  0
   17.0714   -9.7521   15.2097 C   0  0  0  0  0  0  0  0  0  0  0  0
   17.8570  -10.4883   14.3173 C   0  0  0  0  0  0  0  0  0  0  0  0
   18.5144  -11.6432   14.7695 C   0  0  0  0  0  0  0  0  0  0  0  0
   18.3835  -12.0514   16.0990 C   0  0  0  0  0  0  0  0  0  0  0  0
   17.5962  -11.3091   16.9833 C   0  0  0  0  0  0  0  0  0  0  0  0
   15.4191   -8.2033   17.2374 C   0  0  0  0  0  0  0  0  0  0  0  0
   15.4463   -7.6618   16.0985 O   0  0  0  0  0  0  0  0  0  0  0  0
   16.1372   -9.4220   17.4847 N   0  0  0  0  0  0  0  0  0  0  0  0
   16.0748   -9.7927   18.3946 H   0  0  0  0  0  0  0  0  0  0  0  0
   13.1678   -6.3902   20.4062 C   0  0  0  0  0  0  0  0  0  0  0  0
   14.4557   -6.8876   20.6563 C   0  0  0  0  0  0  0  0  0  0  0  0
   15.1851   -7.4796   19.6120 C   0  0  0  0  0  0  0  0  0  0  0  0
   14.6436   -7.5799   18.3242 C   0  0  0  0  0  0  0  0  0  0  0  0
   13.3575   -7.0809   18.0832 C   0  0  0  0  0  0  0  0  0  0  0  0
   12.6251   -6.4908   19.1151 C   0  0  0  0  0  0  0  0  0  0  0  0
   11.3116   -4.9759   21.2339 C   0  0  0  0  0  0  0  0  0  0  0  0
   12.4474   -5.8018   21.4515 O   0  0  0  0  0  0  0  0  0  0  0  0
   14.9903   -6.7839   21.9451 O   0  0  0  0  0  0  0  0  0  0  0  0
   14.8964   -7.8295   22.9032 C   0  0  0  0  0  0  0  0  0  0  0  0
   17.9665  -10.0524   12.9945 O   0  0  0  0  0  0  0  0  0  0  0  0
   16.9357   -9.3270   12.3372 C   0  0  0  0  0  0  0  0  0  0  0  0
   17.2069   -9.2888   10.8760 C   0  0  0  0  0  0  0  0  0  0  0  0
   16.5013  -10.1242   10.0151 C   0  0  0  0  0  0  0  0  0  0  0  0
   16.7559  -10.0485    8.6467 C   0  0  0  0  0  0  0  0  0  0  0  0
   16.1205  -10.8082    7.8648 O   0  0  0  0  0  0  0  0  0  0  0  0
   17.6812   -9.1600    8.1678 N   0  0  0  0  0  0  0  0  0  0  0  0
   17.9297   -9.0868    6.8261 C   0  0  0  0  0  0  0  0  0  0  0  0
   18.8677   -8.1843    6.3223 C   0  0  0  0  0  0  0  0  0  0  0  0
   19.1757   -8.1015    4.6016 Cl  0  0  0  0  0  0  0  0  0  0  0  0
   19.5559   -7.3499    7.2003 C   0  0  0  0  0  0  0  0  0  0  0  0
   19.3019   -7.4251    8.5685 C   0  0  0  0  0  0  0  0  0  0  0  0
   18.3580   -8.3392    9.0431 C   0  0  0  0  0  0  0  0  0  0  0  0
   18.1123   -8.4103   10.3769 N   0  0  0  0  0  0  0  0  0  0  0  0
 17 18  1  0  0  0
 18 11  1  0  0  0
 11 12  2  0  0  0
 12 19  1  0  0  0
 12 13  1  0  0  0
 19 20  1  0  0  0
 13 14  2  0  0  0
 14 15  1  0  0  0
 14  7  1  0  0  0
 15 16  2  0  0  0
 16 11  1  0  0  0
  7  8  2  0  0  0
  7  9  1  0  0  0
  9  1  1  0  0  0
  1  2  2  0  0  0
  2  3  1  0  0  0
  3 21  1  0  0  0
  3  4  2  0  0  0
 21 22  1  0  0  0
 22 23  1  0  0  0
 23 24  2  0  0  0
 24 25  1  0  0  0
 25 26  2  0  0  0
 25 27  1  0  0  0
 27 28  1  0  0  0
 28 29  2  0  0  0
 29 30  1  0  0  0
 29 31  1  0  0  0
 31 32  2  0  0  0
 32 33  1  0  0  0
 33 34  2  0  0  0
 33 27  1  0  0  0
 34 23  1  0  0  0
  4  5  1  0  0  0
  5  6  2  0  0  0
  6  1  1  0  0  0
  9 10  1  0  0  0
M  END
>  <minimizedAffinity>
-9.68372

>  <minimizedRMSD>
1.08626

$$$$
ChemDiv-G756-1197 MCULE-6953358004 MolPort-007-879-664 PubChem-46356440 ZINC000033068051 ZINC33068051


 32 35  0  0  0  0  0  0  0  0999 V2000
   17.4394  -10.1955   14.3580 C   0  0  0  0  0  0  0  0  0  0  0  0
   16.8259   -9.4752   15.3897 C   0  0  0  0  0  0  0  0  0  0  0  0
   16.7954   -9.9622   16.7029 C   0  0  0  0  0  0  0  0  0  0  0  0
   17.3890  -11.1921   16.9869 C   0  0  0  0  0  0  0  0  0  0  0  0
   18.0055  -11.9275   15.9742 C   0  0  0  0  0  0  0  0  0  0  0  0
   18.0393  -11.4463   14.6617 C   0  0  0  0  0  0  0  0  0  0  0  0
   18.7188  -12.2999   13.6469 C   0  0  0  0  0  0  0  0  0  0  0  0
   16.1705   -9.2349   17.7697 N   0  0  0  0  0  0  0  0  0  0  0  0
   15.3297   -8.0756   17.6501 C   0  0  0  0  0  0  0  0  0  0  0  0
   15.0828   -7.5911   16.5139 O   0  0  0  0  0  0  0  0  0  0  0  0
   16.3354   -9.5656   18.6822 H   0  0  0  0  0  0  0  0  0  0  0  0
   14.7625   -7.4615   18.8779 C   0  0  0  0  0  0  0  0  0  0  0  0
   13.4545   -6.9143   18.9551 C   0  0  0  0  0  0  0  0  0  0  0  0
   12.3251   -6.8931   17.6071 Cl  0  0  0  0  0  0  0  0  0  0  0  0
   13.0047   -6.3544   20.1562 C   0  0  0  0  0  0  0  0  0  0  0  0
   13.8275   -6.3269   21.2819 C   0  0  0  0  0  0  0  0  0  0  0  0
   15.1125   -6.8618   21.2163 C   0  0  0  0  0  0  0  0  0  0  0  0
   15.5730   -7.4232   20.0245 C   0  0  0  0  0  0  0  0  0  0  0  0
   17.4116   -9.6113   13.0814 O   0  0  0  0  0  0  0  0  0  0  0  0
   18.5473   -9.1751   12.3481 C   0  0  0  0  0  0  0  0  0  0  0  0
   20.2266   -6.9949    5.5513 C   0  0  0  0  0  0  0  0  0  0  0  0
   19.3209   -7.7201    6.4797 C   0  0  0  0  0  0  0  0  0  0  0  0
   19.6111   -7.7693    7.8418 C   0  0  0  0  0  0  0  0  0  0  0  0
   18.7513   -8.4550    8.7029 C   0  0  0  0  0  0  0  0  0  0  0  0
   19.0363   -8.5022   10.0300 N   0  0  0  0  0  0  0  0  0  0  0  0
   18.2282   -9.1630   10.8963 C   0  0  0  0  0  0  0  0  0  0  0  0
   17.0774   -9.7927   10.4313 C   0  0  0  0  0  0  0  0  0  0  0  0
   16.7875   -9.7419    9.0686 C   0  0  0  0  0  0  0  0  0  0  0  0
   15.7463  -10.3144    8.6443 O   0  0  0  0  0  0  0  0  0  0  0  0
   17.6240   -9.0770    8.2122 N   0  0  0  0  0  0  0  0  0  0  0  0
   17.3392   -9.0285    6.8764 C   0  0  0  0  0  0  0  0  0  0  0  0
   18.1793   -8.3520    5.9902 C   0  0  0  0  0  0  0  0  0  0  0  0
 21 22  1  0  0  0
 22 23  2  0  0  0
 23 24  1  0  0  0
 24 25  2  0  0  0
 25 26  1  0  0  0
 26 20  1  0  0  0
 26 27  2  0  0  0
 20 19  1  0  0  0
 19  1  1  0  0  0
  1  2  2  0  0  0
  2  3  1  0  0  0
  3  8  1  0  0  0
  3  4  2  0  0  0
  8  9  1  0  0  0
  9 10  2  0  0  0
  9 12  1  0  0  0
 12 13  2  0  0  0
 13 14  1  0  0  0
 13 15  1  0  0  0
 15 16  2  0  0  0
 16 17  1  0  0  0
 17 18  2  0  0  0
 18 12  1  0  0  0
  4  5  1  0  0  0
  5  6  2  0  0  0
  6  7  1  0  0  0
  6  1  1  0  0  0
 27 28  1  0  0  0
 28 29  2  0  0  0
 28 30  1  0  0  0
 30 31  1  0  0  0
 30 24  1  0  0  0
 31 32  2  0  0  0
 32 22  1  0  0  0
  8 11  1  0  0  0
M  END
>  <minimizedAffinity>
-9.67488

>  <minimizedRMSD>
1.23123

$$$$
ChemDiv-G756-1278 MCULE-7257800507 MolPort-007-879-710 PubChem-46356486 ZINC000033068098 ZINC33068098


 34 37  0  0  0  0  0  0  0  0999 V2000
   17.4492  -10.1680   14.4582 C   0  0  0  0  0  0  0  0  0  0  0  0
   16.9712   -9.2103   15.3601 C   0  0  0  0  0  0  0  0  0  0  0  0
   16.9209   -9.4645   16.7370 C   0  0  0  0  0  0  0  0  0  0  0  0
   17.3562  -10.6996   17.2179 C   0  0  0  0  0  0  0  0  0  0  0  0
   17.8324  -11.6707   16.3368 C   0  0  0  0  0  0  0  0  0  0  0  0
   17.8854  -11.4222   14.9619 C   0  0  0  0  0  0  0  0  0  0  0  0
   18.3947  -12.5231   14.0965 C   0  0  0  0  0  0  0  0  0  0  0  0
   16.4417   -8.4890   17.6730 N   0  0  0  0  0  0  0  0  0  0  0  0
   15.0826   -8.0768   17.8654 C   0  0  0  0  0  0  0  0  0  0  0  0
   14.1505   -8.6048   17.2013 O   0  0  0  0  0  0  0  0  0  0  0  0
   14.8037   -7.0563   18.8323 N   0  0  0  0  0  0  0  0  0  0  0  0
   17.1178   -8.0569   18.2436 H   0  0  0  0  0  0  0  0  0  0  0  0
   15.5754   -6.6946   19.3252 H   0  0  0  0  0  0  0  0  0  0  0  0
   13.5199   -6.5062   19.1580 C   0  0  0  0  0  0  0  0  0  0  0  0
   13.2540   -6.1603   20.4878 C   0  0  0  0  0  0  0  0  0  0  0  0
   12.0156   -5.6179   20.8445 C   0  0  0  0  0  0  0  0  0  0  0  0
   11.7437   -5.2530   22.2589 C   0  0  0  0  0  0  0  0  0  0  0  0
   11.0335   -5.4177   19.8706 C   0  0  0  0  0  0  0  0  0  0  0  0
   11.2899   -5.7609   18.5404 C   0  0  0  0  0  0  0  0  0  0  0  0
   12.5286   -6.3029   18.1852 C   0  0  0  0  0  0  0  0  0  0  0  0
   17.4579   -9.8053   13.1017 O   0  0  0  0  0  0  0  0  0  0  0  0
   18.6041   -9.4121   12.3609 C   0  0  0  0  0  0  0  0  0  0  0  0
   20.2554   -6.9688    5.6469 C   0  0  0  0  0  0  0  0  0  0  0  0
   19.3317   -7.6933    6.5583 C   0  0  0  0  0  0  0  0  0  0  0  0
   19.6473   -7.8287    7.9088 C   0  0  0  0  0  0  0  0  0  0  0  0
   18.7697   -8.5120    8.7539 C   0  0  0  0  0  0  0  0  0  0  0  0
   19.0792   -8.6430   10.0697 N   0  0  0  0  0  0  0  0  0  0  0  0
   18.2547   -9.3045   10.9201 C   0  0  0  0  0  0  0  0  0  0  0  0
   17.0633   -9.8499   10.4507 C   0  0  0  0  0  0  0  0  0  0  0  0
   16.7489   -9.7144    9.0995 C   0  0  0  0  0  0  0  0  0  0  0  0
   15.6721  -10.2134    8.6704 O   0  0  0  0  0  0  0  0  0  0  0  0
   17.6010   -9.0483    8.2588 N   0  0  0  0  0  0  0  0  0  0  0  0
   17.2916   -8.9158    6.9343 C   0  0  0  0  0  0  0  0  0  0  0  0
   18.1483   -8.2387    6.0641 C   0  0  0  0  0  0  0  0  0  0  0  0
 23 24  1  0  0  0
 24 25  2  0  0  0
 25 26  1  0  0  0
 26 27  2  0  0  0
 27 28  1  0  0  0
 28 22  1  0  0  0
 28 29  2  0  0  0
 22 21  1  0  0  0
 21  1  1  0  0  0
  1  2  2  0  0  0
  2  3  1  0  0  0
  3  8  1  0  0  0
  3  4  2  0  0  0
  8  9  1  0  0  0
  9 10  2  0  0  0
  9 11  1  0  0  0
 11 14  1  0  0  0
 14 15  2  0  0  0
 15 16  1  0  0  0
 16 17  1  0  0  0
 16 18  2  0  0  0
 18 19  1  0  0  0
 19 20  2  0  0  0
 20 14  1  0  0  0
  4  5  1  0  0  0
  5  6  2  0  0  0
  6  7  1  0  0  0
  6  1  1  0  0  0
 29 30  1  0  0  0
 30 31  2  0  0  0
 30 32  1  0  0  0
 32 33  1  0  0  0
 32 26  1  0  0  0
 33 34  2  0  0  0
 34 24  1  0  0  0
  8 12  1  0  0  0
 11 13  1  0  0  0
M  END
>  <minimizedAffinity>
-9.66478

>  <minimizedRMSD>
1.76332

$$$$
ChemDiv-G357-3023 MCULE-5409402958 MolPort-007-847-905 PubChem-20953175 ZINC000015772190 ZINC15772190


 34 37  0  0  0  0  0  0  0  0999 V2000
   17.3010   -9.9954   14.2731 C   0  0  0  0  0  0  0  0  0  0  0  0
   17.5574  -10.6942   15.4608 C   0  0  0  0  0  0  0  0  0  0  0  0
   17.1372  -10.1764   16.6894 C   0  0  0  0  0  0  0  0  0  0  0  0
   16.4543   -8.9578   16.7477 C   0  0  0  0  0  0  0  0  0  0  0  0
   16.2027   -8.2551   15.5597 C   0  0  0  0  0  0  0  0  0  0  0  0
   16.6230   -8.7709   14.3311 C   0  0  0  0  0  0  0  0  0  0  0  0
   16.0453   -8.4560   18.0275 N   0  0  0  0  0  0  0  0  0  0  0  0
   14.8773   -7.6737   18.3061 C   0  0  0  0  0  0  0  0  0  0  0  0
   14.0325   -7.4165   17.4079 O   0  0  0  0  0  0  0  0  0  0  0  0
   16.6262   -8.6709   18.7927 H   0  0  0  0  0  0  0  0  0  0  0  0
   14.6346   -7.1965   19.6929 C   0  0  0  0  0  0  0  0  0  0  0  0
   13.2722   -7.4070   20.0385 O   0  0  0  0  0  0  0  0  0  0  0  0
   12.5351   -6.4895   20.7919 C   0  0  0  0  0  0  0  0  0  0  0  0
   12.7503   -6.3272   22.1713 C   0  0  0  0  0  0  0  0  0  0  0  0
   11.9961   -5.4013   22.8976 C   0  0  0  0  0  0  0  0  0  0  0  0
   11.0232   -4.6331   22.2518 C   0  0  0  0  0  0  0  0  0  0  0  0
   10.2896   -3.7386   22.9554 F   0  0  0  0  0  0  0  0  0  0  0  0
   10.8047   -4.7907   20.8798 C   0  0  0  0  0  0  0  0  0  0  0  0
   11.5599   -5.7159   20.1529 C   0  0  0  0  0  0  0  0  0  0  0  0
   17.7425  -10.5338   12.9765 C   0  0  0  0  0  0  0  0  0  0  0  0
   18.3073  -11.6616   12.9194 O   0  0  0  0  0  0  0  0  0  0  0  0
   17.5371   -9.7893   11.8125 O   0  0  0  0  0  0  0  0  0  0  0  0
   18.5155   -8.8890   11.3132 C   0  0  0  0  0  0  0  0  0  0  0  0
   19.8945   -7.2105    4.3409 C   0  0  0  0  0  0  0  0  0  0  0  0
   19.4467   -7.6905    5.6741 C   0  0  0  0  0  0  0  0  0  0  0  0
   20.0370   -7.3420    6.8935 C   0  0  0  0  0  0  0  0  0  0  0  0
   19.2408   -8.0459    7.7770 C   0  0  0  0  0  0  0  0  0  0  0  0
   19.3404   -8.0918    9.1280 N   0  0  0  0  0  0  0  0  0  0  0  0
   18.4489   -8.8551    9.8282 C   0  0  0  0  0  0  0  0  0  0  0  0
   17.4380   -9.5730    9.1563 C   0  0  0  0  0  0  0  0  0  0  0  0
   17.3781   -9.4961    7.7595 C   0  0  0  0  0  0  0  0  0  0  0  0
   16.4943  -10.1180    7.1137 O   0  0  0  0  0  0  0  0  0  0  0  0
   18.2940   -8.7263    7.1252 N   0  0  0  0  0  0  0  0  0  0  0  0
   18.4268   -8.5059    5.8572 O   0  0  0  0  0  0  0  0  0  0  0  0
 24 25  1  0  0  0
 25 26  2  0  0  0
 26 27  1  0  0  0
 27 28  2  0  0  0
 28 29  1  0  0  0
 29 23  1  0  0  0
 29 30  2  0  0  0
 23 22  1  0  0  0
 22 20  1  0  0  0
 20 21  2  0  0  0
 20  1  1  0  0  0
  1  2  2  0  0  0
  2  3  1  0  0  0
  3  4  2  0  0  0
  4  7  1  0  0  0
  4  5  1  0  0  0
  7  8  1  0  0  0
  8  9  2  0  0  0
  8 11  1  0  0  0
 11 12  1  0  0  0
 12 13  1  0  0  0
 13 14  2  0  0  0
 14 15  1  0  0  0
 15 16  2  0  0  0
 16 17  1  0  0  0
 16 18  1  0  0  0
 18 19  2  0  0  0
 19 13  1  0  0  0
  5  6  2  0  0  0
  6  1  1  0  0  0
 30 31  1  0  0  0
 31 32  2  0  0  0
 31 33  1  0  0  0
 33 34  1  0  0  0
 33 27  1  0  0  0
 34 25  1  0  0  0
  7 10  1  0  0  0
M  END
>  <minimizedAffinity>
-9.64929

>  <minimizedRMSD>
1.51756

$$$$
ChemDiv-D439-4220 MCULE-3778453405 MolPort-007-706-791 PubChem-46268373 ZINC000021797190 ZINC21797190


 32 35  0  0  0  0  0  0  0  0999 V2000
   17.2115   -9.9092   14.3393 C   0  0  0  0  0  0  0  0  0  0  0  0
   16.6185   -9.2149   15.4001 C   0  0  0  0  0  0  0  0  0  0  0  0
   16.7597   -9.6464   16.7255 C   0  0  0  0  0  0  0  0  0  0  0  0
   17.5066  -10.7940   16.9922 C   0  0  0  0  0  0  0  0  0  0  0  0
   18.1066  -11.5019   15.9505 C   0  0  0  0  0  0  0  0  0  0  0  0
   17.9700  -11.0752   14.6259 C   0  0  0  0  0  0  0  0  0  0  0  0
   18.6436  -11.8950   13.5798 C   0  0  0  0  0  0  0  0  0  0  0  0
   16.1555   -8.9458   17.8213 N   0  0  0  0  0  0  0  0  0  0  0  0
   15.1358   -7.9378   17.7420 C   0  0  0  0  0  0  0  0  0  0  0  0
   14.6867   -7.5655   16.6238 O   0  0  0  0  0  0  0  0  0  0  0  0
   16.4734   -9.1806   18.7229 H   0  0  0  0  0  0  0  0  0  0  0  0
   14.6114   -7.3310   18.9783 C   0  0  0  0  0  0  0  0  0  0  0  0
   15.3082   -7.4715   20.1876 C   0  0  0  0  0  0  0  0  0  0  0  0
   14.8111   -6.8968   21.3610 C   0  0  0  0  0  0  0  0  0  0  0  0
   13.6134   -6.1773   21.3339 C   0  0  0  0  0  0  0  0  0  0  0  0
   12.9125   -6.0326   20.1337 C   0  0  0  0  0  0  0  0  0  0  0  0
   13.4095   -6.6073   18.9603 C   0  0  0  0  0  0  0  0  0  0  0  0
   17.0033   -9.3873   13.0525 O   0  0  0  0  0  0  0  0  0  0  0  0
   16.3666  -10.0660   11.9794 C   0  0  0  0  0  0  0  0  0  0  0  0
   18.7272   -8.2019    7.3838 N   0  0  0  0  0  0  0  0  0  0  0  0
   19.6740   -7.4465    7.9864 C   0  0  0  0  0  0  0  0  0  0  0  0
   19.5700   -7.5145    9.3420 N   0  0  0  0  0  0  0  0  0  0  0  0
   18.5238   -8.3486    9.5022 C   0  0  0  0  0  0  0  0  0  0  0  0
   18.0152   -8.7578   10.6901 N   0  0  0  0  0  0  0  0  0  0  0  0
   16.9626   -9.6284   10.6900 C   0  0  0  0  0  0  0  0  0  0  0  0
   16.4134  -10.0877    9.4759 C   0  0  0  0  0  0  0  0  0  0  0  0
   16.9733   -9.6405    8.2728 C   0  0  0  0  0  0  0  0  0  0  0  0
   16.5210  -10.0442    7.1695 O   0  0  0  0  0  0  0  0  0  0  0  0
   18.0157   -8.7687    8.3417 N   0  0  0  0  0  0  0  0  0  0  0  0
   18.5572   -8.3649    5.9445 C   0  0  0  0  0  0  0  0  0  0  0  0
   20.2599   -8.3930    4.1220 C   0  0  0  0  0  0  0  0  0  0  0  0
   19.5878   -7.5444    5.1840 C   0  0  0  0  0  0  0  0  0  0  0  0
 31 32  1  0  0  0
 32 30  1  0  0  0
 30 20  1  0  0  0
 20 21  1  0  0  0
 21 22  2  0  0  0
 22 23  1  0  0  0
 23 24  2  0  0  0
 24 25  1  0  0  0
 25 19  1  0  0  0
 25 26  2  0  0  0
 19 18  1  0  0  0
 18  1  1  0  0  0
  1  2  2  0  0  0
  2  3  1  0  0  0
  3  8  1  0  0  0
  3  4  2  0  0  0
  8  9  1  0  0  0
  9 10  2  0  0  0
  9 12  1  0  0  0
 12 13  2  0  0  0
 13 14  1  0  0  0
 14 15  2  0  0  0
 15 16  1  0  0  0
 16 17  2  0  0  0
 17 12  1  0  0  0
  4  5  1  0  0  0
  5  6  2  0  0  0
  6  7  1  0  0  0
  6  1  1  0  0  0
 26 27  1  0  0  0
 27 28  2  0  0  0
 27 29  1  0  0  0
 29 20  1  0  0  0
 29 23  1  0  0  0
  8 11  1  0  0  0
M  END
>  <minimizedAffinity>
-9.64540

>  <minimizedRMSD>
1.68941

$$$$
ChemDiv-G357-3049 MCULE-9853624774 MolPort-007-847-918 PubChem-46343599 ZINC000021923382 ZINC21923382


 32 35  0  0  0  0  0  0  0  0999 V2000
   17.0745   -9.7653   14.3387 C   0  0  0  0  0  0  0  0  0  0  0  0
   16.4413   -8.5207   14.4475 C   0  0  0  0  0  0  0  0  0  0  0  0
   16.0523   -8.0341   15.6984 C   0  0  0  0  0  0  0  0  0  0  0  0
   16.2916   -8.7863   16.8579 C   0  0  0  0  0  0  0  0  0  0  0  0
   16.9247  -10.0284   16.7483 C   0  0  0  0  0  0  0  0  0  0  0  0
   17.3141  -10.5164   15.4978 C   0  0  0  0  0  0  0  0  0  0  0  0
   15.9093   -8.3198   18.1589 N   0  0  0  0  0  0  0  0  0  0  0  0
   14.7248   -7.5818   18.4969 C   0  0  0  0  0  0  0  0  0  0  0  0
   13.8781   -7.2856   17.6103 O   0  0  0  0  0  0  0  0  0  0  0  0
   16.5244   -8.5276   18.8991 H   0  0  0  0  0  0  0  0  0  0  0  0
   14.4956   -7.1686   19.8927 C   0  0  0  0  0  0  0  0  0  0  0  0
   13.2420   -6.6830   20.2937 C   0  0  0  0  0  0  0  0  0  0  0  0
   13.0262   -6.2910   21.6181 C   0  0  0  0  0  0  0  0  0  0  0  0
   11.8127   -5.8237   21.9968 F   0  0  0  0  0  0  0  0  0  0  0  0
   14.0622   -6.3821   22.5516 C   0  0  0  0  0  0  0  0  0  0  0  0
   15.3139   -6.8646   22.1609 C   0  0  0  0  0  0  0  0  0  0  0  0
   15.5297   -7.2563   20.8363 C   0  0  0  0  0  0  0  0  0  0  0  0
   17.4835  -10.2733   13.0194 C   0  0  0  0  0  0  0  0  0  0  0  0
   17.9697  -11.4331   12.9113 O   0  0  0  0  0  0  0  0  0  0  0  0
   17.3307   -9.4663   11.8899 O   0  0  0  0  0  0  0  0  0  0  0  0
   18.4071   -8.7090   11.3568 C   0  0  0  0  0  0  0  0  0  0  0  0
   19.8389   -7.3745    4.3200 C   0  0  0  0  0  0  0  0  0  0  0  0
   19.3827   -7.7898    5.6723 C   0  0  0  0  0  0  0  0  0  0  0  0
   19.9425   -7.3540    6.8783 C   0  0  0  0  0  0  0  0  0  0  0  0
   19.1563   -8.0333    7.7891 C   0  0  0  0  0  0  0  0  0  0  0  0
   19.2347   -7.9985    9.1419 N   0  0  0  0  0  0  0  0  0  0  0  0
   18.3586   -8.7523    9.8714 C   0  0  0  0  0  0  0  0  0  0  0  0
   17.3812   -9.5386    9.2272 C   0  0  0  0  0  0  0  0  0  0  0  0
   17.3396   -9.5408    7.8275 C   0  0  0  0  0  0  0  0  0  0  0  0
   16.4883  -10.2294    7.2061 O   0  0  0  0  0  0  0  0  0  0  0  0
   18.2413   -8.7791    7.1636 N   0  0  0  0  0  0  0  0  0  0  0  0
   18.3858   -8.6256    5.8873 O   0  0  0  0  0  0  0  0  0  0  0  0
 22 23  1  0  0  0
 23 24  2  0  0  0
 24 25  1  0  0  0
 25 26  2  0  0  0
 26 27  1  0  0  0
 27 21  1  0  0  0
 27 28  2  0  0  0
 21 20  1  0  0  0
 20 18  1  0  0  0
 18 19  2  0  0  0
 18  1  1  0  0  0
  1  2  2  0  0  0
  2  3  1  0  0  0
  3  4  2  0  0  0
  4  7  1  0  0  0
  4  5  1  0  0  0
  7  8  1  0  0  0
  8  9  2  0  0  0
  8 11  1  0  0  0
 11 12  2  0  0  0
 12 13  1  0  0  0
 13 14  1  0  0  0
 13 15  2  0  0  0
 15 16  1  0  0  0
 16 17  2  0  0  0
 17 11  1  0  0  0
  5  6  2  0  0  0
  6  1  1  0  0  0
 28 29  1  0  0  0
 29 30  2  0  0  0
 29 31  1  0  0  0
 31 32  1  0  0  0
 31 25  1  0  0  0
 32 23  1  0  0  0
  7 10  1  0  0  0
M  END
>  <minimizedAffinity>
-9.63830

>  <minimizedRMSD>
1.36959

$$$$
ChemDiv-G756-0428 MCULE-3024201810 MolPort-007-879-154 PubChem-46356021 ZINC000021156758 ZINC21156758


 36 40  0  0  0  0  0  0  0  0999 V2000
   18.4576  -12.9349   13.7931 C   0  0  0  0  0  0  0  0  0  0  0  0
   18.0504  -11.8502   14.7293 C   0  0  0  0  0  0  0  0  0  0  0  0
   18.1063  -12.0845   16.1060 C   0  0  0  0  0  0  0  0  0  0  0  0
   17.7302  -11.0846   17.0061 C   0  0  0  0  0  0  0  0  0  0  0  0
   17.2947   -9.8410   16.5404 C   0  0  0  0  0  0  0  0  0  0  0  0
   17.2394   -9.6083   15.1589 C   0  0  0  0  0  0  0  0  0  0  0  0
   17.6151  -10.6063   14.2450 C   0  0  0  0  0  0  0  0  0  0  0  0
   16.9169   -8.8396   17.4951 N   0  0  0  0  0  0  0  0  0  0  0  0
   15.5868   -8.4011   17.7999 C   0  0  0  0  0  0  0  0  0  0  0  0
   14.5933   -8.9013   17.2073 O   0  0  0  0  0  0  0  0  0  0  0  0
   15.4093   -7.3819   18.7919 N   0  0  0  0  0  0  0  0  0  0  0  0
   17.6481   -8.4081   17.9936 H   0  0  0  0  0  0  0  0  0  0  0  0
   16.2267   -7.0326   19.2152 H   0  0  0  0  0  0  0  0  0  0  0  0
   14.1669   -6.8171   19.2333 C   0  0  0  0  0  0  0  0  0  0  0  0
   13.0953   -6.5961   18.3516 C   0  0  0  0  0  0  0  0  0  0  0  0
   11.8995   -6.0366   18.8131 C   0  0  0  0  0  0  0  0  0  0  0  0
   11.7697   -5.6954   20.1608 C   0  0  0  0  0  0  0  0  0  0  0  0
   10.5950   -5.1107   20.6413 O   0  0  0  0  0  0  0  0  0  0  0  0
   10.5559   -4.5027   21.9344 C   0  0  0  0  0  0  0  0  0  0  0  0
   11.3632   -5.3335   22.9345 C   0  0  0  0  0  0  0  0  0  0  0  0
   12.6577   -5.6266   22.4035 O   0  0  0  0  0  0  0  0  0  0  0  0
   12.8243   -5.9380   21.0512 C   0  0  0  0  0  0  0  0  0  0  0  0
   14.0225   -6.4855   20.5859 C   0  0  0  0  0  0  0  0  0  0  0  0
   17.5619  -10.3796   12.8650 O   0  0  0  0  0  0  0  0  0  0  0  0
   16.8556   -9.2871   12.2916 C   0  0  0  0  0  0  0  0  0  0  0  0
   17.1321   -9.2260   10.8324 C   0  0  0  0  0  0  0  0  0  0  0  0
   16.4706  -10.0872    9.9621 C   0  0  0  0  0  0  0  0  0  0  0  0
   16.7691  -10.0279    8.6018 C   0  0  0  0  0  0  0  0  0  0  0  0
   16.1672  -10.8046    7.8104 O   0  0  0  0  0  0  0  0  0  0  0  0
   17.7032   -9.1386    8.1412 N   0  0  0  0  0  0  0  0  0  0  0  0
   17.9951   -9.0813    6.8074 C   0  0  0  0  0  0  0  0  0  0  0  0
   18.9468   -8.1829    6.3216 C   0  0  0  0  0  0  0  0  0  0  0  0
   19.6043   -7.3368    7.2123 C   0  0  0  0  0  0  0  0  0  0  0  0
   19.3065   -7.3954    8.5725 C   0  0  0  0  0  0  0  0  0  0  0  0
   18.3487   -8.3047    9.0276 C   0  0  0  0  0  0  0  0  0  0  0  0
   18.0602   -8.3601   10.3536 N   0  0  0  0  0  0  0  0  0  0  0  0
  1  2  1  0  0  0
  2  3  2  0  0  0
  3  4  1  0  0  0
  4  5  2  0  0  0
  5  8  1  0  0  0
  5  6  1  0  0  0
  8  9  1  0  0  0
  9 10  2  0  0  0
  9 11  1  0  0  0
 11 14  1  0  0  0
 14 15  2  0  0  0
 15 16  1  0  0  0
 16 17  2  0  0  0
 17 18  1  0  0  0
 18 19  1  0  0  0
 19 20  1  0  0  0
 20 21  1  0  0  0
 21 22  1  0  0  0
 22 23  2  0  0  0
 22 17  1  0  0  0
 23 14  1  0  0  0
  6  7  2  0  0  0
  7 24  1  0  0  0
  7  2  1  0  0  0
 24 25  1  0  0  0
 25 26  1  0  0  0
 26 27  2  0  0  0
 27 28  1  0  0  0
 28 29  2  0  0  0
 28 30  1  0  0  0
 30 31  1  0  0  0
 31 32  2  0  0  0
 32 33  1  0  0  0
 33 34  2  0  0  0
 34 35  1  0  0  0
 35 36  2  0  0  0
 35 30  1  0  0  0
 36 26  1  0  0  0
  8 12  1  0  0  0
 11 13  1  0  0  0
M  END
>  <minimizedAffinity>
-9.62902

>  <minimizedRMSD>
1.35742

$$$$
ChemDiv-G357-0275 MCULE-7177001517 MolPort-007-847-122 PubChem-46343243 ZINC000021016753 ZINC21016753


 34 37  0  0  0  0  0  0  0  0999 V2000
   18.3860  -11.0137   13.5910 C   0  0  0  0  0  0  0  0  0  0  0  0
   18.8388  -12.1881   13.6871 O   0  0  0  0  0  0  0  0  0  0  0  0
   17.7621  -10.3665   14.7563 C   0  0  0  0  0  0  0  0  0  0  0  0
   17.2041   -9.0875   14.6346 C   0  0  0  0  0  0  0  0  0  0  0  0
   16.6109   -8.4689   15.7384 C   0  0  0  0  0  0  0  0  0  0  0  0
   16.5676   -9.1215   16.9791 C   0  0  0  0  0  0  0  0  0  0  0  0
   17.1250  -10.3986   17.0995 C   0  0  0  0  0  0  0  0  0  0  0  0
   17.7187  -11.0186   15.9964 C   0  0  0  0  0  0  0  0  0  0  0  0
   15.9674   -8.5195   18.1341 N   0  0  0  0  0  0  0  0  0  0  0  0
   14.7822   -7.7094   18.1663 C   0  0  0  0  0  0  0  0  0  0  0  0
   14.1494   -7.4551   17.1054 O   0  0  0  0  0  0  0  0  0  0  0  0
   16.4153   -8.6786   18.9963 H   0  0  0  0  0  0  0  0  0  0  0  0
   14.3014   -7.1699   19.4505 C   0  0  0  0  0  0  0  0  0  0  0  0
   14.9351   -7.5258   20.6501 C   0  0  0  0  0  0  0  0  0  0  0  0
   14.4801   -7.0145   21.8690 C   0  0  0  0  0  0  0  0  0  0  0  0
   15.1582   -7.3977   23.1344 C   0  0  0  0  0  0  0  0  0  0  0  0
   13.3878   -6.1435   21.8974 C   0  0  0  0  0  0  0  0  0  0  0  0
   12.7504   -5.7834   20.7072 C   0  0  0  0  0  0  0  0  0  0  0  0
   13.2054   -6.2947   19.4883 C   0  0  0  0  0  0  0  0  0  0  0  0
   18.4737  -10.3225   12.3806 O   0  0  0  0  0  0  0  0  0  0  0  0
   17.3670   -9.6198   11.8346 C   0  0  0  0  0  0  0  0  0  0  0  0
   19.2764   -7.7514    6.3711 C   0  0  0  0  0  0  0  0  0  0  0  0
   18.2476   -8.6321    6.4546 N   0  0  0  0  0  0  0  0  0  0  0  0
   17.9515   -8.9498    7.7128 N   0  0  0  0  0  0  0  0  0  0  0  0
   18.7252   -8.3362    8.6318 C   0  0  0  0  0  0  0  0  0  0  0  0
   19.8600   -7.3288    7.9161 S   0  0  0  0  0  0  0  0  0  0  0  0
   18.5569   -8.5445    9.9605 N   0  0  0  0  0  0  0  0  0  0  0  0
   17.5843   -9.4024   10.3801 C   0  0  0  0  0  0  0  0  0  0  0  0
   16.7575  -10.0491    9.4467 C   0  0  0  0  0  0  0  0  0  0  0  0
   16.9637   -9.8065    8.0842 C   0  0  0  0  0  0  0  0  0  0  0  0
   16.2417  -10.3738    7.2219 O   0  0  0  0  0  0  0  0  0  0  0  0
   19.3611   -8.1617    3.9349 C   0  0  0  0  0  0  0  0  0  0  0  0
   19.7908   -7.2387    5.0580 C   0  0  0  0  0  0  0  0  0  0  0  0
   21.3024   -7.0910    5.0375 C   0  0  0  0  0  0  0  0  0  0  0  0
 32 33  1  0  0  0
 33 34  1  0  0  0
 33 22  1  0  0  0
 22 23  2  0  0  0
 23 24  1  0  0  0
 24 25  1  0  0  0
 25 26  1  0  0  0
 25 27  2  0  0  0
 26 22  1  0  0  0
 27 28  1  0  0  0
 28 21  1  0  0  0
 28 29  2  0  0  0
 21 20  1  0  0  0
 20  1  1  0  0  0
  1  2  2  0  0  0
  1  3  1  0  0  0
  3  4  2  0  0  0
  4  5  1  0  0  0
  5  6  2  0  0  0
  6  9  1  0  0  0
  6  7  1  0  0  0
  9 10  1  0  0  0
 10 11  2  0  0  0
 10 13  1  0  0  0
 13 14  2  0  0  0
 14 15  1  0  0  0
 15 16  1  0  0  0
 15 17  2  0  0  0
 17 18  1  0  0  0
 18 19  2  0  0  0
 19 13  1  0  0  0
  7  8  2  0  0  0
  8  3  1  0  0  0
 29 30  1  0  0  0
 30 31  2  0  0  0
 30 24  1  0  0  0
  9 12  1  0  0  0
M  END
>  <minimizedAffinity>
-9.58765

>  <minimizedRMSD>
1.00234

$$$$
ChemDiv-G756-1271 MCULE-4793557517 MolPort-007-879-703 PubChem-46356479 ZINC000033068091 ZINC33068091


 38 41  0  0  0  0  0  0  0  0999 V2000
   16.8356   -9.4590   16.8635 C   0  0  0  0  0  0  0  0  0  0  0  0
   17.3027  -10.6430   17.4403 C   0  0  0  0  0  0  0  0  0  0  0  0
   17.7812  -11.6803   16.6359 C   0  0  0  0  0  0  0  0  0  0  0  0
   17.7944  -11.5441   15.2449 C   0  0  0  0  0  0  0  0  0  0  0  0
   18.3091  -12.6668   14.4123 C   0  0  0  0  0  0  0  0  0  0  0  0
   17.3259  -10.3619   14.6495 C   0  0  0  0  0  0  0  0  0  0  0  0
   16.8479   -9.3257   15.4677 C   0  0  0  0  0  0  0  0  0  0  0  0
   14.6845   -6.9952   18.8560 N   0  0  0  0  0  0  0  0  0  0  0  0
   14.9774   -8.0569   17.9386 C   0  0  0  0  0  0  0  0  0  0  0  0
   14.0502   -8.6570   17.3310 O   0  0  0  0  0  0  0  0  0  0  0  0
   16.3473   -8.4179   17.7210 N   0  0  0  0  0  0  0  0  0  0  0  0
   15.4570   -6.5788   19.3022 H   0  0  0  0  0  0  0  0  0  0  0  0
   17.0238   -7.8969   18.2112 H   0  0  0  0  0  0  0  0  0  0  0  0
   13.1588   -5.9175   20.4842 C   0  0  0  0  0  0  0  0  0  0  0  0
   13.3913   -6.4691   19.1986 C   0  0  0  0  0  0  0  0  0  0  0  0
   12.3451   -6.4855   18.2616 C   0  0  0  0  0  0  0  0  0  0  0  0
   11.0894   -5.9673   18.5774 C   0  0  0  0  0  0  0  0  0  0  0  0
   10.8611   -5.4217   19.8387 C   0  0  0  0  0  0  0  0  0  0  0  0
   11.8884   -5.3977   20.7824 C   0  0  0  0  0  0  0  0  0  0  0  0
   14.2022   -5.8634   21.5381 C   0  0  0  0  0  0  0  0  0  0  0  0
   14.3146   -4.8266   22.2504 O   0  0  0  0  0  0  0  0  0  0  0  0
   15.0564   -6.9474   21.7568 O   0  0  0  0  0  0  0  0  0  0  0  0
   17.3925   -6.4164   21.6659 C   0  0  0  0  0  0  0  0  0  0  0  0
   16.2318   -6.8339   22.5451 C   0  0  0  0  0  0  0  0  0  0  0  0
   17.3394  -10.2341   13.2557 O   0  0  0  0  0  0  0  0  0  0  0  0
   18.4393   -9.6782   12.5465 C   0  0  0  0  0  0  0  0  0  0  0  0
   18.0608   -9.4645   11.1248 C   0  0  0  0  0  0  0  0  0  0  0  0
   16.8495   -9.9552   10.6465 C   0  0  0  0  0  0  0  0  0  0  0  0
   16.5293   -9.7620    9.3039 C   0  0  0  0  0  0  0  0  0  0  0  0
   15.4298  -10.2032    8.8693 O   0  0  0  0  0  0  0  0  0  0  0  0
   17.4003   -9.1041    8.4770 N   0  0  0  0  0  0  0  0  0  0  0  0
   17.0844   -8.9145    7.1610 C   0  0  0  0  0  0  0  0  0  0  0  0
   17.9620   -8.2480    6.3040 C   0  0  0  0  0  0  0  0  0  0  0  0
   19.1736   -7.7728    6.8022 C   0  0  0  0  0  0  0  0  0  0  0  0
   20.1194   -7.0601    5.9039 C   0  0  0  0  0  0  0  0  0  0  0  0
   19.4960   -7.9665    8.1441 C   0  0  0  0  0  0  0  0  0  0  0  0
   18.5964   -8.6369    8.9766 C   0  0  0  0  0  0  0  0  0  0  0  0
   18.9119   -8.8244   10.2844 N   0  0  0  0  0  0  0  0  0  0  0  0
 23 24  1  0  0  0
 24 22  1  0  0  0
 22 20  1  0  0  0
 20 21  2  0  0  0
 20 14  1  0  0  0
 14 15  2  0  0  0
 15  8  1  0  0  0
 15 16  1  0  0  0
  8  9  1  0  0  0
  9 10  2  0  0  0
  9 11  1  0  0  0
 11  1  1  0  0  0
  1  2  2  0  0  0
  2  3  1  0  0  0
  3  4  2  0  0  0
  4  5  1  0  0  0
  4  6  1  0  0  0
  6 25  1  0  0  0
  6  7  2  0  0  0
 25 26  1  0  0  0
 26 27  1  0  0  0
 27 28  2  0  0  0
 28 29  1  0  0  0
 29 30  2  0  0  0
 29 31  1  0  0  0
 31 32  1  0  0  0
 32 33  2  0  0  0
 33 34  1  0  0  0
 34 35  1  0  0  0
 34 36  2  0  0  0
 36 37  1  0  0  0
 37 38  2  0  0  0
 37 31  1  0  0  0
 38 27  1  0  0  0
  7  1  1  0  0  0
 16 17  2  0  0  0
 17 18  1  0  0  0
 18 19  2  0  0  0
 19 14  1  0  0  0
  8 12  1  0  0  0
 11 13  1  0  0  0
M  END
>  <minimizedAffinity>
-9.56738

>  <minimizedRMSD>
1.42640

$$$$
ChemDiv-G756-1208 MCULE-1243479099 MolPort-007-879-667 PubChem-46356443 ZINC000033068054 ZINC33068054


 31 34  0  0  0  0  0  0  0  0999 V2000
   17.4477  -10.2184   14.3905 C   0  0  0  0  0  0  0  0  0  0  0  0
   16.8865   -9.3922   15.3711 C   0  0  0  0  0  0  0  0  0  0  0  0
   16.8422   -9.7814   16.7162 C   0  0  0  0  0  0  0  0  0  0  0  0
   17.3690  -11.0194   17.0849 C   0  0  0  0  0  0  0  0  0  0  0  0
   17.9335  -11.8590   16.1244 C   0  0  0  0  0  0  0  0  0  0  0  0
   17.9806  -11.4759   14.7805 C   0  0  0  0  0  0  0  0  0  0  0  0
   18.6023  -12.4366   13.8264 C   0  0  0  0  0  0  0  0  0  0  0  0
   16.2700   -8.9448   17.7304 N   0  0  0  0  0  0  0  0  0  0  0  0
   15.2336   -7.9667   17.5536 C   0  0  0  0  0  0  0  0  0  0  0  0
   14.7203   -7.7600   16.4223 O   0  0  0  0  0  0  0  0  0  0  0  0
   16.6244   -9.0521   18.6425 H   0  0  0  0  0  0  0  0  0  0  0  0
   14.7486   -7.1771   18.7225 C   0  0  0  0  0  0  0  0  0  0  0  0
   13.2609   -6.8604   18.5714 C   0  0  0  0  0  0  0  0  0  0  0  0
   12.7690   -6.0537   19.7699 C   0  0  0  0  0  0  0  0  0  0  0  0
   13.0194   -6.8252   21.0630 C   0  0  0  0  0  0  0  0  0  0  0  0
   14.5079   -7.1263   21.2160 C   0  0  0  0  0  0  0  0  0  0  0  0
   15.0066   -7.9374   20.0234 C   0  0  0  0  0  0  0  0  0  0  0  0
   17.4381   -9.7277   13.0748 O   0  0  0  0  0  0  0  0  0  0  0  0
   18.5795   -9.3015   12.3445 C   0  0  0  0  0  0  0  0  0  0  0  0
   20.2780   -7.0000    5.5927 C   0  0  0  0  0  0  0  0  0  0  0  0
   19.3563   -7.7197    6.5095 C   0  0  0  0  0  0  0  0  0  0  0  0
   18.1912   -8.3011    6.0134 C   0  0  0  0  0  0  0  0  0  0  0  0
   17.3361   -8.9731    6.8888 C   0  0  0  0  0  0  0  0  0  0  0  0
   17.6295   -9.0659    8.2203 N   0  0  0  0  0  0  0  0  0  0  0  0
   16.7783   -9.7259    9.0662 C   0  0  0  0  0  0  0  0  0  0  0  0
   15.7166  -10.2544    8.6358 O   0  0  0  0  0  0  0  0  0  0  0  0
   17.0763   -9.8210   10.4247 C   0  0  0  0  0  0  0  0  0  0  0  0
   18.2504   -9.2415   10.8962 C   0  0  0  0  0  0  0  0  0  0  0  0
   19.0733   -8.5851   10.0403 N   0  0  0  0  0  0  0  0  0  0  0  0
   18.7802   -8.4941    8.7175 C   0  0  0  0  0  0  0  0  0  0  0  0
   19.6554   -7.8144    7.8672 C   0  0  0  0  0  0  0  0  0  0  0  0
 20 21  1  0  0  0
 21 22  1  0  0  0
 22 23  2  0  0  0
 23 24  1  0  0  0
 24 25  1  0  0  0
 25 26  2  0  0  0
 25 27  1  0  0  0
 27 28  2  0  0  0
 28 19  1  0  0  0
 19 18  1  0  0  0
 18  1  1  0  0  0
  1  2  2  0  0  0
  2  3  1  0  0  0
  3  8  1  0  0  0
  8  9  1  0  0  0
  9 10  2  0  0  0
  9 12  1  0  0  0
 12 13  1  0  0  0
 13 14  1  0  0  0
 14 15  1  0  0  0
 15 16  1  0  0  0
 16 17  1  0  0  0
  3  4  2  0  0  0
  4  5  1  0  0  0
  5  6  2  0  0  0
  6  7  1  0  0  0
 28 29  1  0  0  0
 29 30  2  0  0  0
 30 31  1  0  0  0
 31 21  2  0  0  0
 30 24  1  0  0  0
  6  1  1  0  0  0
 17 12  1  0  0  0
  8 11  1  0  0  0
M  END
>  <minimizedAffinity>
-9.56097

>  <minimizedRMSD>
1.01496

$$$$
ChemDiv-D420-6402 MCULE-9339194679 MolPort-007-705-727


 26 28  0  0  0  0  0  0  0  0999 V2000
   17.8003  -10.0206   13.4618 C   0  0  0  0  0  0  0  0  0  0  0  0
   18.3836   -9.8353   12.2626 N   0  0  0  0  0  0  0  0  0  0  0  0
   17.3051   -9.6984   11.4600 C   0  0  0  0  0  0  0  0  0  0  0  0
   16.1452   -9.7985   12.1414 N   0  0  0  0  0  0  0  0  0  0  0  0
   16.4949   -9.9982   13.3750 O   0  0  0  0  0  0  0  0  0  0  0  0
   17.4006   -9.4647   10.0027 C   0  0  0  0  0  0  0  0  0  0  0  0
   16.4160   -9.9110    9.0935 C   0  0  0  0  0  0  0  0  0  0  0  0
   15.2937  -10.6024    9.5340 O   0  0  0  0  0  0  0  0  0  0  0  0
   16.5559   -9.6668    7.7618 N   0  0  0  0  0  0  0  0  0  0  0  0
   17.6270   -8.9971    7.2629 C   0  0  0  0  0  0  0  0  0  0  0  0
   17.7359   -8.7653    5.8888 C   0  0  0  0  0  0  0  0  0  0  0  0
   18.8424   -8.0745    5.3835 C   0  0  0  0  0  0  0  0  0  0  0  0
   19.8409   -7.6151    6.2498 C   0  0  0  0  0  0  0  0  0  0  0  0
   21.0139   -6.8820    5.7071 C   0  0  0  0  0  0  0  0  0  0  0  0
   19.7368   -7.8444    7.6257 C   0  0  0  0  0  0  0  0  0  0  0  0
   18.6329   -8.5340    8.1339 C   0  0  0  0  0  0  0  0  0  0  0  0
   18.5103   -8.7727    9.5004 C   0  0  0  0  0  0  0  0  0  0  0  0
   15.1809  -10.7794   10.4472 H   0  0  0  0  0  0  0  0  0  0  0  0
   18.5497  -10.2307   14.7348 C   0  0  0  0  0  0  0  0  0  0  0  0
   18.1545   -9.1956   15.7755 C   0  0  0  0  0  0  0  0  0  0  0  0
   17.0304   -9.7237   16.6499 C   0  0  0  0  0  0  0  0  0  0  0  0
   14.8680   -7.3097   18.7652 C   0  0  0  0  0  0  0  0  0  0  0  0
   15.7590   -8.3859   18.3665 N   0  0  0  0  0  0  0  0  0  0  0  0
   16.1003   -8.6169   16.9995 C   0  0  0  0  0  0  0  0  0  0  0  0
   15.6425   -7.8756   16.0892 O   0  0  0  0  0  0  0  0  0  0  0  0
   16.1387   -8.9731   19.0594 H   0  0  0  0  0  0  0  0  0  0  0  0
 22 23  1  0  0  0
 23 24  1  0  0  0
 24 25  2  0  0  0
 24 21  1  0  0  0
 21 20  1  0  0  0
 20 19  1  0  0  0
 19  1  1  0  0  0
  1  2  2  0  0  0
  2  3  1  0  0  0
  3  4  2  0  0  0
  3  6  1  0  0  0
  4  5  1  0  0  0
  5  1  1  0  0  0
  6  7  2  0  0  0
  7  8  1  0  0  0
  7  9  1  0  0  0
  9 10  2  0  0  0
 10 11  1  0  0  0
 11 12  2  0  0  0
 12 13  1  0  0  0
 13 14  1  0  0  0
 13 15  2  0  0  0
 15 16  1  0  0  0
 16 17  2  0  0  0
 16 10  1  0  0  0
 17  6  1  0  0  0
 23 26  1  0  0  0
  8 18  1  0  0  0
M  END
>  <minimizedAffinity>
-9.55473

>  <minimizedRMSD>
1.22042

$$$$
ChemDiv-G756-1216 MCULE-9994501173 MolPort-007-879-674 PubChem-46356450 ZINC000033068061 ZINC33068061


 34 37  0  0  0  0  0  0  0  0999 V2000
   17.5181  -10.3148   14.3183 C   0  0  0  0  0  0  0  0  0  0  0  0
   16.9626   -9.5632   15.3600 C   0  0  0  0  0  0  0  0  0  0  0  0
   16.9653  -10.0313   16.6802 C   0  0  0  0  0  0  0  0  0  0  0  0
   17.5338  -11.2736   16.9616 C   0  0  0  0  0  0  0  0  0  0  0  0
   18.0906  -12.0413   15.9385 C   0  0  0  0  0  0  0  0  0  0  0  0
   18.0903  -11.5795   14.6187 C   0  0  0  0  0  0  0  0  0  0  0  0
   18.7014  -12.4696   13.5920 C   0  0  0  0  0  0  0  0  0  0  0  0
   16.4022   -9.2700   17.7568 N   0  0  0  0  0  0  0  0  0  0  0  0
   15.5303   -8.1381   17.6427 C   0  0  0  0  0  0  0  0  0  0  0  0
   15.1553   -7.7116   16.5183 O   0  0  0  0  0  0  0  0  0  0  0  0
   16.6391   -9.5541   18.6691 H   0  0  0  0  0  0  0  0  0  0  0  0
   15.0275   -7.4774   18.8799 C   0  0  0  0  0  0  0  0  0  0  0  0
   14.1324   -6.4207   18.5471 O   0  0  0  0  0  0  0  0  0  0  0  0
   12.7501   -6.4904   18.7540 C   0  0  0  0  0  0  0  0  0  0  0  0
   11.9881   -7.5751   18.2891 C   0  0  0  0  0  0  0  0  0  0  0  0
   10.6091   -7.6152   18.5113 C   0  0  0  0  0  0  0  0  0  0  0  0
    9.8096   -8.7640   18.0125 C   0  0  0  0  0  0  0  0  0  0  0  0
    9.9826   -6.5744   19.2023 C   0  0  0  0  0  0  0  0  0  0  0  0
   10.7358   -5.4939   19.6704 C   0  0  0  0  0  0  0  0  0  0  0  0
   12.1155   -5.4533   19.4466 C   0  0  0  0  0  0  0  0  0  0  0  0
   17.4648   -9.7460   13.0355 O   0  0  0  0  0  0  0  0  0  0  0  0
   18.5735   -9.2243   12.3171 C   0  0  0  0  0  0  0  0  0  0  0  0
   20.2738   -6.9749    5.5482 C   0  0  0  0  0  0  0  0  0  0  0  0
   19.3624   -7.7049    6.4671 C   0  0  0  0  0  0  0  0  0  0  0  0
   19.6528   -7.7754    7.8282 C   0  0  0  0  0  0  0  0  0  0  0  0
   18.7863   -8.4635    8.6806 C   0  0  0  0  0  0  0  0  0  0  0  0
   19.0704   -8.5298   10.0069 N   0  0  0  0  0  0  0  0  0  0  0  0
   18.2549   -9.1922   10.8654 C   0  0  0  0  0  0  0  0  0  0  0  0
   17.0986   -9.8050   10.3925 C   0  0  0  0  0  0  0  0  0  0  0  0
   16.8095   -9.7349    9.0304 C   0  0  0  0  0  0  0  0  0  0  0  0
   15.7635  -10.2932    8.5989 O   0  0  0  0  0  0  0  0  0  0  0  0
   17.6524   -9.0671    8.1824 N   0  0  0  0  0  0  0  0  0  0  0  0
   17.3676   -8.9981    6.8475 C   0  0  0  0  0  0  0  0  0  0  0  0
   18.2144   -8.3187    5.9698 C   0  0  0  0  0  0  0  0  0  0  0  0
 23 24  1  0  0  0
 24 25  2  0  0  0
 25 26  1  0  0  0
 26 27  2  0  0  0
 27 28  1  0  0  0
 28 22  1  0  0  0
 28 29  2  0  0  0
 22 21  1  0  0  0
 21  1  1  0  0  0
  1  2  2  0  0  0
  2  3  1  0  0  0
  3  8  1  0  0  0
  3  4  2  0  0  0
  8  9  1  0  0  0
  9 10  2  0  0  0
  9 12  1  0  0  0
 12 13  1  0  0  0
 13 14  1  0  0  0
 14 15  2  0  0  0
 15 16  1  0  0  0
 16 17  1  0  0  0
 16 18  2  0  0  0
 18 19  1  0  0  0
 19 20  2  0  0  0
 20 14  1  0  0  0
  4  5  1  0  0  0
  5  6  2  0  0  0
  6  7  1  0  0  0
  6  1  1  0  0  0
 29 30  1  0  0  0
 30 31  2  0  0  0
 30 32  1  0  0  0
 32 33  1  0  0  0
 32 26  1  0  0  0
 33 34  2  0  0  0
 34 24  1  0  0  0
  8 11  1  0  0  0
M  END
>  <minimizedAffinity>
-9.54913

>  <minimizedRMSD>
1.76780

$$$$
ChemDiv-G357-2999 MCULE-4848929259 MolPort-007-847-886 PubChem-46343585 ZINC000015772154 ZINC15772154


 32 35  0  0  0  0  0  0  0  0999 V2000
   17.0162   -9.7851   14.4291 C   0  0  0  0  0  0  0  0  0  0  0  0
   16.3808   -8.5363   14.4414 C   0  0  0  0  0  0  0  0  0  0  0  0
   15.9624   -7.9692   15.6483 C   0  0  0  0  0  0  0  0  0  0  0  0
   16.1757   -8.6431   16.8600 C   0  0  0  0  0  0  0  0  0  0  0  0
   16.8107   -9.8897   16.8466 C   0  0  0  0  0  0  0  0  0  0  0  0
   17.2285  -10.4588   15.6400 C   0  0  0  0  0  0  0  0  0  0  0  0
   15.7581   -8.0958   18.1178 N   0  0  0  0  0  0  0  0  0  0  0  0
   14.4549   -7.5913   18.4500 C   0  0  0  0  0  0  0  0  0  0  0  0
   13.5437   -7.5751   17.5809 O   0  0  0  0  0  0  0  0  0  0  0  0
   16.4372   -8.0622   18.8299 H   0  0  0  0  0  0  0  0  0  0  0  0
   14.2080   -7.0653   19.8145 C   0  0  0  0  0  0  0  0  0  0  0  0
   13.2252   -6.0858   20.1144 C   0  0  0  0  0  0  0  0  0  0  0  0
   12.0254   -5.3362   18.8208 Br  0  0  0  0  0  0  0  0  0  0  0  0
   13.0689   -5.6401   21.4315 C   0  0  0  0  0  0  0  0  0  0  0  0
   13.8679   -6.1481   22.4555 C   0  0  0  0  0  0  0  0  0  0  0  0
   14.8305   -7.1151   22.1712 C   0  0  0  0  0  0  0  0  0  0  0  0
   14.9962   -7.5690   20.8619 C   0  0  0  0  0  0  0  0  0  0  0  0
   17.4533  -10.3785   13.1556 C   0  0  0  0  0  0  0  0  0  0  0  0
   17.9325  -11.5459   13.1337 O   0  0  0  0  0  0  0  0  0  0  0  0
   17.3394   -9.6416   11.9746 O   0  0  0  0  0  0  0  0  0  0  0  0
   18.4142   -8.8662   11.4657 C   0  0  0  0  0  0  0  0  0  0  0  0
   19.8374   -7.2738    4.4829 C   0  0  0  0  0  0  0  0  0  0  0  0
   19.3802   -7.7374    5.8190 C   0  0  0  0  0  0  0  0  0  0  0  0
   19.9491   -7.3572    7.0392 C   0  0  0  0  0  0  0  0  0  0  0  0
   19.1570   -8.0623    7.9249 C   0  0  0  0  0  0  0  0  0  0  0  0
   19.2422   -8.0840    9.2773 N   0  0  0  0  0  0  0  0  0  0  0  0
   18.3604   -8.8562    9.9797 C   0  0  0  0  0  0  0  0  0  0  0  0
   17.3734   -9.6073    9.3083 C   0  0  0  0  0  0  0  0  0  0  0  0
   17.3265   -9.5531    7.9098 C   0  0  0  0  0  0  0  0  0  0  0  0
   16.4646  -10.2054    7.2644 O   0  0  0  0  0  0  0  0  0  0  0  0
   18.2318   -8.7725    7.2736 N   0  0  0  0  0  0  0  0  0  0  0  0
   18.3732   -8.5683    6.0041 O   0  0  0  0  0  0  0  0  0  0  0  0
 22 23  1  0  0  0
 23 24  2  0  0  0
 24 25  1  0  0  0
 25 26  2  0  0  0
 26 27  1  0  0  0
 27 21  1  0  0  0
 27 28  2  0  0  0
 21 20  1  0  0  0
 20 18  1  0  0  0
 18 19  2  0  0  0
 18  1  1  0  0  0
  1  2  2  0  0  0
  2  3  1  0  0  0
  3  4  2  0  0  0
  4  7  1  0  0  0
  4  5  1  0  0  0
  7  8  1  0  0  0
  8  9  2  0  0  0
  8 11  1  0  0  0
 11 12  2  0  0  0
 12 13  1  0  0  0
 12 14  1  0  0  0
 14 15  2  0  0  0
 15 16  1  0  0  0
 16 17  2  0  0  0
 17 11  1  0  0  0
  5  6  2  0  0  0
  6  1  1  0  0  0
 28 29  1  0  0  0
 29 30  2  0  0  0
 29 31  1  0  0  0
 31 32  1  0  0  0
 31 25  1  0  0  0
 32 23  1  0  0  0
  7 10  1  0  0  0
M  END
>  <minimizedAffinity>
-9.54688

>  <minimizedRMSD>
1.16780

$$$$
ChemDiv-G357-2998 MCULE-1006201046 MolPort-007-847-885 PubChem-46343584 ZINC000015772152 ZINC15772152


 32 35  0  0  0  0  0  0  0  0999 V2000
   17.0478   -9.7802   14.3949 C   0  0  0  0  0  0  0  0  0  0  0  0
   16.4124   -8.5327   14.4426 C   0  0  0  0  0  0  0  0  0  0  0  0
   16.0113   -7.9919   15.6672 C   0  0  0  0  0  0  0  0  0  0  0  0
   16.2402   -8.6919   16.8609 C   0  0  0  0  0  0  0  0  0  0  0  0
   16.8745   -9.9372   16.8121 C   0  0  0  0  0  0  0  0  0  0  0  0
   17.2764  -10.4795   15.5881 C   0  0  0  0  0  0  0  0  0  0  0  0
   15.8432   -8.1698   18.1363 N   0  0  0  0  0  0  0  0  0  0  0  0
   14.5641   -7.6151   18.4805 C   0  0  0  0  0  0  0  0  0  0  0  0
   13.6422   -7.5466   17.6225 O   0  0  0  0  0  0  0  0  0  0  0  0
   16.5192   -8.1942   18.8516 H   0  0  0  0  0  0  0  0  0  0  0  0
   14.3268   -7.1216   19.8486 C   0  0  0  0  0  0  0  0  0  0  0  0
   13.1846   -6.3614   20.1413 C   0  0  0  0  0  0  0  0  0  0  0  0
   12.9602   -5.8937   21.4393 C   0  0  0  0  0  0  0  0  0  0  0  0
   11.4053   -4.8623   21.8239 Br  0  0  0  0  0  0  0  0  0  0  0  0
   13.8760   -6.1825   22.4545 C   0  0  0  0  0  0  0  0  0  0  0  0
   15.0163   -6.9391   22.1718 C   0  0  0  0  0  0  0  0  0  0  0  0
   15.2407   -7.4069   20.8736 C   0  0  0  0  0  0  0  0  0  0  0  0
   17.4685  -10.3455   13.1029 C   0  0  0  0  0  0  0  0  0  0  0  0
   17.9507  -11.5108   13.0495 O   0  0  0  0  0  0  0  0  0  0  0  0
   17.3314   -9.5866   11.9384 O   0  0  0  0  0  0  0  0  0  0  0  0
   18.3963   -8.8006   11.4240 C   0  0  0  0  0  0  0  0  0  0  0  0
   19.8289   -7.2992    4.4212 C   0  0  0  0  0  0  0  0  0  0  0  0
   19.3721   -7.7462    5.7632 C   0  0  0  0  0  0  0  0  0  0  0  0
   19.9329   -7.3406    6.9790 C   0  0  0  0  0  0  0  0  0  0  0  0
   19.1457   -8.0403    7.8734 C   0  0  0  0  0  0  0  0  0  0  0  0
   19.2249   -8.0386    9.2267 N   0  0  0  0  0  0  0  0  0  0  0  0
   18.3478   -8.8085    9.9382 C   0  0  0  0  0  0  0  0  0  0  0  0
   17.3688   -9.5774    9.2756 C   0  0  0  0  0  0  0  0  0  0  0  0
   17.3266   -9.5456    7.8764 C   0  0  0  0  0  0  0  0  0  0  0  0
   16.4737  -10.2171    7.2389 O   0  0  0  0  0  0  0  0  0  0  0  0
   18.2293   -8.7694    7.2306 N   0  0  0  0  0  0  0  0  0  0  0  0
   18.3737   -8.5852    5.9583 O   0  0  0  0  0  0  0  0  0  0  0  0
 22 23  1  0  0  0
 23 24  2  0  0  0
 24 25  1  0  0  0
 25 26  2  0  0  0
 26 27  1  0  0  0
 27 21  1  0  0  0
 27 28  2  0  0  0
 21 20  1  0  0  0
 20 18  1  0  0  0
 18 19  2  0  0  0
 18  1  1  0  0  0
  1  2  2  0  0  0
  2  3  1  0  0  0
  3  4  2  0  0  0
  4  7  1  0  0  0
  4  5  1  0  0  0
  7  8  1  0  0  0
  8  9  2  0  0  0
  8 11  1  0  0  0
 11 12  2  0  0  0
 12 13  1  0  0  0
 13 14  1  0  0  0
 13 15  2  0  0  0
 15 16  1  0  0  0
 16 17  2  0  0  0
 17 11  1  0  0  0
  5  6  2  0  0  0
  6  1  1  0  0  0
 28 29  1  0  0  0
 29 30  2  0  0  0
 29 31  1  0  0  0
 31 32  1  0  0  0
 31 25  1  0  0  0
 32 23  1  0  0  0
  7 10  1  0  0  0
M  END
>  <minimizedAffinity>
-9.53490

>  <minimizedRMSD>
1.30336

$$$$
ChemDiv-D420-6388 MCULE-4216057348 MolPort-007-705-719


 31 34  0  0  0  0  0  0  0  0999 V2000
   17.3574   -9.9944   12.5699 C   0  0  0  0  0  0  0  0  0  0  0  0
   17.5839  -11.2174   13.0922 N   0  0  0  0  0  0  0  0  0  0  0  0
   17.6093  -11.0359   14.3769 O   0  0  0  0  0  0  0  0  0  0  0  0
   17.4129   -9.7698   14.6436 C   0  0  0  0  0  0  0  0  0  0  0  0
   17.2402   -9.0442   13.5236 N   0  0  0  0  0  0  0  0  0  0  0  0
   20.3266   -7.2144    6.3863 C   0  0  0  0  0  0  0  0  0  0  0  0
   19.2015   -7.8873    7.0858 C   0  0  0  0  0  0  0  0  0  0  0  0
   19.2951   -8.1620    8.4542 C   0  0  0  0  0  0  0  0  0  0  0  0
   18.2360   -8.7950    9.1100 C   0  0  0  0  0  0  0  0  0  0  0  0
   18.3091   -9.0772   10.4717 C   0  0  0  0  0  0  0  0  0  0  0  0
   17.2432   -9.7121   11.1226 C   0  0  0  0  0  0  0  0  0  0  0  0
   16.1004  -10.0560   10.3672 C   0  0  0  0  0  0  0  0  0  0  0  0
   15.0127  -10.6871   10.9590 O   0  0  0  0  0  0  0  0  0  0  0  0
   16.0501   -9.7707    9.0372 N   0  0  0  0  0  0  0  0  0  0  0  0
   17.0768   -9.1557    8.3951 C   0  0  0  0  0  0  0  0  0  0  0  0
   16.9885   -8.8789    7.0279 C   0  0  0  0  0  0  0  0  0  0  0  0
   18.0507   -8.2451    6.3745 C   0  0  0  0  0  0  0  0  0  0  0  0
   15.0300  -10.8911   11.8734 H   0  0  0  0  0  0  0  0  0  0  0  0
   17.3553   -9.2017   16.0208 C   0  0  0  0  0  0  0  0  0  0  0  0
   15.9368   -9.2530   16.5627 C   0  0  0  0  0  0  0  0  0  0  0  0
   15.4224   -7.8478   16.8446 C   0  0  0  0  0  0  0  0  0  0  0  0
   14.6848   -7.7553   18.1439 C   0  0  0  0  0  0  0  0  0  0  0  0
   13.4498   -7.5082   18.1233 O   0  0  0  0  0  0  0  0  0  0  0  0
   15.3589   -7.9465   19.3931 N   0  0  0  0  0  0  0  0  0  0  0  0
   16.3192   -8.1633   19.3827 H   0  0  0  0  0  0  0  0  0  0  0  0
   14.6827   -7.8334   20.6784 C   0  0  0  0  0  0  0  0  0  0  0  0
   15.0011   -6.4990   21.3349 C   0  0  0  0  0  0  0  0  0  0  0  0
   16.1908   -6.6332   22.2588 C   0  0  0  0  0  0  0  0  0  0  0  0
   15.8252   -5.7862   23.4396 C   0  0  0  0  0  0  0  0  0  0  0  0
   14.4494   -5.2617   23.1006 C   0  0  0  0  0  0  0  0  0  0  0  0
   13.9029   -6.0682   22.0919 O   0  0  0  0  0  0  0  0  0  0  0  0
  6  7  1  0  0  0
  7  8  2  0  0  0
  8  9  1  0  0  0
  9 10  2  0  0  0
 10 11  1  0  0  0
 11  1  1  0  0  0
 11 12  2  0  0  0
  1  2  2  0  0  0
  2  3  1  0  0  0
  3  4  1  0  0  0
  4 19  1  0  0  0
  4  5  2  0  0  0
 19 20  1  0  0  0
 20 21  1  0  0  0
 21 22  1  0  0  0
 22 23  2  0  0  0
 22 24  1  0  0  0
 24 26  1  0  0  0
 27 26  1  0  0  0
 27 28  1  0  0  0
 28 29  1  0  0  0
 29 30  1  0  0  0
 30 31  1  0  0  0
 31 27  1  0  0  0
  5  1  1  0  0  0
 12 13  1  0  0  0
 12 14  1  0  0  0
 14 15  2  0  0  0
 15 16  1  0  0  0
 15  9  1  0  0  0
 16 17  2  0  0  0
 17  7  1  0  0  0
 24 25  1  0  0  0
 13 18  1  0  0  0
M  END
>  <minimizedAffinity>
-9.52744

>  <minimizedRMSD>
1.75696

$$$$
ChemDiv-G756-2324 MCULE-1737324503 MolPort-007-880-020 PubChem-46356753 ZINC000033068279 ZINC33068279


 34 37  0  0  0  0  0  0  0  0999 V2000
   17.3017   -9.2858   16.1046 C   0  0  0  0  0  0  0  0  0  0  0  0
   16.5803   -9.0341   14.9273 C   0  0  0  0  0  0  0  0  0  0  0  0
   17.0618   -9.4686   13.6883 C   0  0  0  0  0  0  0  0  0  0  0  0
   18.2800  -10.1640   13.6281 C   0  0  0  0  0  0  0  0  0  0  0  0
   19.0021  -10.4195   14.7962 C   0  0  0  0  0  0  0  0  0  0  0  0
   18.5129   -9.9814   16.0293 C   0  0  0  0  0  0  0  0  0  0  0  0
   15.3250   -7.7974   19.0283 N   0  0  0  0  0  0  0  0  0  0  0  0
   15.6319   -8.1239   17.6671 C   0  0  0  0  0  0  0  0  0  0  0  0
   14.8637   -7.7714   16.7321 O   0  0  0  0  0  0  0  0  0  0  0  0
   16.8332   -8.8548   17.3900 N   0  0  0  0  0  0  0  0  0  0  0  0
   15.9565   -8.1201   19.7112 H   0  0  0  0  0  0  0  0  0  0  0  0
   17.3965   -9.0854   18.1637 H   0  0  0  0  0  0  0  0  0  0  0  0
   12.0092   -5.5886   20.5009 C   0  0  0  0  0  0  0  0  0  0  0  0
   13.0072   -6.0578   21.3700 C   0  0  0  0  0  0  0  0  0  0  0  0
   14.0923   -6.7837   20.8706 C   0  0  0  0  0  0  0  0  0  0  0  0
   14.1956   -7.0506   19.5016 C   0  0  0  0  0  0  0  0  0  0  0  0
   13.1978   -6.5806   18.6343 C   0  0  0  0  0  0  0  0  0  0  0  0
   12.1123   -5.8541   19.1320 C   0  0  0  0  0  0  0  0  0  0  0  0
   11.0493   -3.6536   21.7067 C   0  0  0  0  0  0  0  0  0  0  0  0
   10.9118   -4.8603   20.9683 O   0  0  0  0  0  0  0  0  0  0  0  0
   16.3153   -9.1974   12.5390 O   0  0  0  0  0  0  0  0  0  0  0  0
   16.0664  -10.1755   11.5379 C   0  0  0  0  0  0  0  0  0  0  0  0
   16.7107   -9.7616   10.2634 C   0  0  0  0  0  0  0  0  0  0  0  0
   16.2253  -10.2424    9.0512 C   0  0  0  0  0  0  0  0  0  0  0  0
   16.8341   -9.8229    7.8694 C   0  0  0  0  0  0  0  0  0  0  0  0
   16.3981  -10.2608    6.7693 O   0  0  0  0  0  0  0  0  0  0  0  0
   17.8873   -8.9488    7.9116 N   0  0  0  0  0  0  0  0  0  0  0  0
   18.4849   -8.5399    6.7527 C   0  0  0  0  0  0  0  0  0  0  0  0
   19.5578   -7.6476    6.7791 C   0  0  0  0  0  0  0  0  0  0  0  0
   20.3140   -7.1331    5.2870 Cl  0  0  0  0  0  0  0  0  0  0  0  0
   20.0209   -7.1691    8.0028 C   0  0  0  0  0  0  0  0  0  0  0  0
   19.4110   -7.5866    9.1844 C   0  0  0  0  0  0  0  0  0  0  0  0
   18.3402   -8.4820    9.1262 C   0  0  0  0  0  0  0  0  0  0  0  0
   17.7498   -8.8896   10.2794 N   0  0  0  0  0  0  0  0  0  0  0  0
 19 20  1  0  0  0
 20 13  1  0  0  0
 13 14  2  0  0  0
 14 15  1  0  0  0
 15 16  2  0  0  0
 16  7  1  0  0  0
 16 17  1  0  0  0
  7  8  1  0  0  0
  8  9  2  0  0  0
  8 10  1  0  0  0
 10  1  1  0  0  0
  1  2  2  0  0  0
  2  3  1  0  0  0
  3 21  1  0  0  0
  3  4  2  0  0  0
 21 22  1  0  0  0
 22 23  1  0  0  0
 23 24  2  0  0  0
 24 25  1  0  0  0
 25 26  2  0  0  0
 25 27  1  0  0  0
 27 28  1  0  0  0
 28 29  2  0  0  0
 29 30  1  0  0  0
 29 31  1  0  0  0
 31 32  2  0  0  0
 32 33  1  0  0  0
 33 34  2  0  0  0
 33 27  1  0  0  0
 34 23  1  0  0  0
  4  5  1  0  0  0
  5  6  2  0  0  0
  6  1  1  0  0  0
 17 18  2  0  0  0
 18 13  1  0  0  0
  7 11  1  0  0  0
 10 12  1  0  0  0
M  END
>  <minimizedAffinity>
-9.52223

>  <minimizedRMSD>
2.05261

$$$$
ChemDiv-G756-2282 MCULE-5295868908 MolPort-007-879-995 PubChem-46356729 ZINC000033068255 ZINC33068255


 31 34  0  0  0  0  0  0  0  0999 V2000
   16.8288   -9.0689   16.5669 C   0  0  0  0  0  0  0  0  0  0  0  0
   16.2518   -8.8784   15.3021 C   0  0  0  0  0  0  0  0  0  0  0  0
   16.9093   -9.3077   14.1450 C   0  0  0  0  0  0  0  0  0  0  0  0
   18.1600   -9.9353   14.2563 C   0  0  0  0  0  0  0  0  0  0  0  0
   18.7403  -10.1283   15.5122 C   0  0  0  0  0  0  0  0  0  0  0  0
   18.0755   -9.6958   16.6627 C   0  0  0  0  0  0  0  0  0  0  0  0
   15.0028   -7.8213   17.8707 C   0  0  0  0  0  0  0  0  0  0  0  0
   14.4253   -7.3977   16.8325 O   0  0  0  0  0  0  0  0  0  0  0  0
   16.1787   -8.6396   17.7709 N   0  0  0  0  0  0  0  0  0  0  0  0
   16.5810   -8.9374   18.6186 H   0  0  0  0  0  0  0  0  0  0  0  0
   11.5372   -5.8417   20.6795 F   0  0  0  0  0  0  0  0  0  0  0  0
   12.7265   -6.4814   20.5755 C   0  0  0  0  0  0  0  0  0  0  0  0
   13.4452   -6.8118   21.7274 C   0  0  0  0  0  0  0  0  0  0  0  0
   14.6723   -7.4718   21.6198 C   0  0  0  0  0  0  0  0  0  0  0  0
   15.1806   -7.8014   20.3599 C   0  0  0  0  0  0  0  0  0  0  0  0
   14.4661   -7.4736   19.1983 C   0  0  0  0  0  0  0  0  0  0  0  0
   13.2349   -6.8109   19.3156 C   0  0  0  0  0  0  0  0  0  0  0  0
   16.3009   -9.0993   12.9047 O   0  0  0  0  0  0  0  0  0  0  0  0
   16.0938  -10.1462   11.9656 C   0  0  0  0  0  0  0  0  0  0  0  0
   16.7020   -9.7734   10.6612 C   0  0  0  0  0  0  0  0  0  0  0  0
   16.1597  -10.2607    9.4759 C   0  0  0  0  0  0  0  0  0  0  0  0
   16.7326   -9.8735    8.2656 C   0  0  0  0  0  0  0  0  0  0  0  0
   16.2452  -10.3176    7.1898 O   0  0  0  0  0  0  0  0  0  0  0  0
   17.8058   -9.0231    8.2541 N   0  0  0  0  0  0  0  0  0  0  0  0
   18.3665   -8.6440    7.0669 C   0  0  0  0  0  0  0  0  0  0  0  0
   19.4587   -7.7756    7.0385 C   0  0  0  0  0  0  0  0  0  0  0  0
   20.1666   -7.2988    5.5109 Cl  0  0  0  0  0  0  0  0  0  0  0  0
   19.9801   -7.2912    8.2363 C   0  0  0  0  0  0  0  0  0  0  0  0
   19.4078   -7.6781    9.4465 C   0  0  0  0  0  0  0  0  0  0  0  0
   18.3158   -8.5494    9.4431 C   0  0  0  0  0  0  0  0  0  0  0  0
   17.7598   -8.9247   10.6240 N   0  0  0  0  0  0  0  0  0  0  0  0
 11 12  1  0  0  0
 12 13  2  0  0  0
 13 14  1  0  0  0
 14 15  2  0  0  0
 15 16  1  0  0  0
 16 17  2  0  0  0
 16  7  1  0  0  0
 17 12  1  0  0  0
  7  8  2  0  0  0
  7  9  1  0  0  0
  9  1  1  0  0  0
  1  2  2  0  0  0
  2  3  1  0  0  0
  3 18  1  0  0  0
  3  4  2  0  0  0
 18 19  1  0  0  0
 19 20  1  0  0  0
 20 21  2  0  0  0
 21 22  1  0  0  0
 22 23  2  0  0  0
 22 24  1  0  0  0
 24 25  1  0  0  0
 25 26  2  0  0  0
 26 27  1  0  0  0
 26 28  1  0  0  0
 28 29  2  0  0  0
 29 30  1  0  0  0
 30 31  2  0  0  0
 30 24  1  0  0  0
 31 20  1  0  0  0
  4  5  1  0  0  0
  5  6  2  0  0  0
  6  1  1  0  0  0
  9 10  1  0  0  0
M  END
>  <minimizedAffinity>
-9.51854

>  <minimizedRMSD>
1.44063

$$$$
ChemDiv-G756-1405 MCULE-9580604899 MolPort-007-879-809 PubChem-46356567 ZINC000021100433 ZINC21100433


 30 33  0  0  0  0  0  0  0  0999 V2000
   17.1156   -9.6689   14.2549 C   0  0  0  0  0  0  0  0  0  0  0  0
   17.9728  -10.7604   14.4653 C   0  0  0  0  0  0  0  0  0  0  0  0
   18.2240  -11.2171   15.7613 C   0  0  0  0  0  0  0  0  0  0  0  0
   17.6210  -10.5870   16.8531 C   0  0  0  0  0  0  0  0  0  0  0  0
   16.7647   -9.4985   16.6584 C   0  0  0  0  0  0  0  0  0  0  0  0
   16.5169   -9.0449   15.3538 C   0  0  0  0  0  0  0  0  0  0  0  0
   16.1654   -8.8789   17.8046 N   0  0  0  0  0  0  0  0  0  0  0  0
   15.1046   -7.9110   17.8051 C   0  0  0  0  0  0  0  0  0  0  0  0
   14.5959   -7.5154   16.7210 O   0  0  0  0  0  0  0  0  0  0  0  0
   16.5186   -9.1454   18.6840 H   0  0  0  0  0  0  0  0  0  0  0  0
   14.6062   -7.3751   19.0842 C   0  0  0  0  0  0  0  0  0  0  0  0
   15.3387   -7.5639   20.2654 C   0  0  0  0  0  0  0  0  0  0  0  0
   14.8667   -7.0559   21.4794 C   0  0  0  0  0  0  0  0  0  0  0  0
   13.6583   -6.3552   21.5210 C   0  0  0  0  0  0  0  0  0  0  0  0
   12.9219   -6.1623   20.3492 C   0  0  0  0  0  0  0  0  0  0  0  0
   13.3939   -6.6703   19.1354 C   0  0  0  0  0  0  0  0  0  0  0  0
   16.8430   -9.1870   12.9722 O   0  0  0  0  0  0  0  0  0  0  0  0
   16.1880   -9.9684   11.9815 C   0  0  0  0  0  0  0  0  0  0  0  0
   19.9517   -7.4712    5.5183 C   0  0  0  0  0  0  0  0  0  0  0  0
   19.3883   -7.8131    6.8500 C   0  0  0  0  0  0  0  0  0  0  0  0
   18.3189   -8.7040    6.9537 C   0  0  0  0  0  0  0  0  0  0  0  0
   17.7930   -9.0256    8.1733 N   0  0  0  0  0  0  0  0  0  0  0  0
   16.7418   -9.8992    8.2585 C   0  0  0  0  0  0  0  0  0  0  0  0
   16.2433  -10.4175    7.2218 O   0  0  0  0  0  0  0  0  0  0  0  0
   16.2043  -10.2278    9.5020 C   0  0  0  0  0  0  0  0  0  0  0  0
   16.7591   -9.6588   10.6443 C   0  0  0  0  0  0  0  0  0  0  0  0
   17.7942   -8.7888   10.5338 N   0  0  0  0  0  0  0  0  0  0  0  0
   18.3157   -8.4708    9.3208 C   0  0  0  0  0  0  0  0  0  0  0  0
   19.3854   -7.5750    9.2490 C   0  0  0  0  0  0  0  0  0  0  0  0
   19.9224   -7.2466    8.0054 C   0  0  0  0  0  0  0  0  0  0  0  0
 19 20  1  0  0  0
 20 21  2  0  0  0
 21 22  1  0  0  0
 22 23  1  0  0  0
 23 24  2  0  0  0
 23 25  1  0  0  0
 25 26  2  0  0  0
 26 18  1  0  0  0
 26 27  1  0  0  0
 18 17  1  0  0  0
 17  1  1  0  0  0
  1  2  2  0  0  0
  2  3  1  0  0  0
  3  4  2  0  0  0
  4  5  1  0  0  0
  5  7  1  0  0  0
  5  6  2  0  0  0
  7  8  1  0  0  0
  8  9  2  0  0  0
  8 11  1  0  0  0
 11 12  2  0  0  0
 12 13  1  0  0  0
 13 14  2  0  0  0
 14 15  1  0  0  0
 15 16  2  0  0  0
 16 11  1  0  0  0
  6  1  1  0  0  0
 27 28  2  0  0  0
 28 29  1  0  0  0
 28 22  1  0  0  0
 29 30  2  0  0  0
 30 20  1  0  0  0
  7 10  1  0  0  0
M  END
>  <minimizedAffinity>
-9.49540

>  <minimizedRMSD>
1.05742

$$$$
ChemDiv-G756-0396 MCULE-2580928435 MolPort-007-879-126 PubChem-46355993 ZINC000033067808 ZINC33067808


 33 36  0  0  0  0  0  0  0  0999 V2000
   18.2952  -12.4012   14.5244 C   0  0  0  0  0  0  0  0  0  0  0  0
   17.7373  -11.2864   15.3406 C   0  0  0  0  0  0  0  0  0  0  0  0
   17.6473  -11.4951   16.7204 C   0  0  0  0  0  0  0  0  0  0  0  0
   17.1336  -10.5051   17.5584 C   0  0  0  0  0  0  0  0  0  0  0  0
   16.7002   -9.2895   17.0292 C   0  0  0  0  0  0  0  0  0  0  0  0
   16.7885   -9.0747   15.6475 C   0  0  0  0  0  0  0  0  0  0  0  0
   17.3013  -10.0530   14.7879 C   0  0  0  0  0  0  0  0  0  0  0  0
   16.1792   -8.2946   17.9214 N   0  0  0  0  0  0  0  0  0  0  0  0
   14.8092   -7.8965   18.0601 C   0  0  0  0  0  0  0  0  0  0  0  0
   13.9084   -8.4401   17.3659 O   0  0  0  0  0  0  0  0  0  0  0  0
   14.4840   -6.8689   19.0048 N   0  0  0  0  0  0  0  0  0  0  0  0
   16.8313   -7.8369   18.4997 H   0  0  0  0  0  0  0  0  0  0  0  0
   15.2348   -6.4837   19.5119 H   0  0  0  0  0  0  0  0  0  0  0  0
   13.1806   -6.3423   19.2897 C   0  0  0  0  0  0  0  0  0  0  0  0
   13.0705   -5.2551   20.1639 C   0  0  0  0  0  0  0  0  0  0  0  0
   11.8172   -4.7149   20.4676 C   0  0  0  0  0  0  0  0  0  0  0  0
   11.7211   -3.6623   21.3146 F   0  0  0  0  0  0  0  0  0  0  0  0
   10.6639   -5.2601   19.8969 C   0  0  0  0  0  0  0  0  0  0  0  0
   10.7641   -6.3459   19.0230 C   0  0  0  0  0  0  0  0  0  0  0  0
   12.0179   -6.8853   18.7206 C   0  0  0  0  0  0  0  0  0  0  0  0
   17.3435   -9.7297   13.4221 O   0  0  0  0  0  0  0  0  0  0  0  0
   18.4651   -9.9007   12.5676 C   0  0  0  0  0  0  0  0  0  0  0  0
   18.0820   -9.5690   11.1702 C   0  0  0  0  0  0  0  0  0  0  0  0
   16.8845  -10.0459   10.6455 C   0  0  0  0  0  0  0  0  0  0  0  0
   16.5365   -9.6981    9.3413 C   0  0  0  0  0  0  0  0  0  0  0  0
   15.4536  -10.1335    8.8619 O   0  0  0  0  0  0  0  0  0  0  0  0
   17.3623   -8.8954    8.6004 N   0  0  0  0  0  0  0  0  0  0  0  0
   17.0190   -8.5529    7.3227 C   0  0  0  0  0  0  0  0  0  0  0  0
   17.8481   -7.7335    6.5544 C   0  0  0  0  0  0  0  0  0  0  0  0
   19.0393   -7.2619    7.1024 C   0  0  0  0  0  0  0  0  0  0  0  0
   19.3889   -7.6105    8.4058 C   0  0  0  0  0  0  0  0  0  0  0  0
   18.5381   -8.4323    9.1489 C   0  0  0  0  0  0  0  0  0  0  0  0
   18.8802   -8.7693   10.4193 N   0  0  0  0  0  0  0  0  0  0  0  0
  1  2  1  0  0  0
  2  3  2  0  0  0
  3  4  1  0  0  0
  4  5  2  0  0  0
  5  8  1  0  0  0
  5  6  1  0  0  0
  8  9  1  0  0  0
  9 10  2  0  0  0
  9 11  1  0  0  0
 11 14  1  0  0  0
 14 15  2  0  0  0
 15 16  1  0  0  0
 16 17  1  0  0  0
 16 18  2  0  0  0
 18 19  1  0  0  0
 19 20  2  0  0  0
 20 14  1  0  0  0
  6  7  2  0  0  0
  7 21  1  0  0  0
  7  2  1  0  0  0
 21 22  1  0  0  0
 22 23  1  0  0  0
 23 24  2  0  0  0
 24 25  1  0  0  0
 25 26  2  0  0  0
 25 27  1  0  0  0
 27 28  1  0  0  0
 28 29  2  0  0  0
 29 30  1  0  0  0
 30 31  2  0  0  0
 31 32  1  0  0  0
 32 33  2  0  0  0
 32 27  1  0  0  0
 33 23  1  0  0  0
  8 12  1  0  0  0
 11 13  1  0  0  0
M  END
>  <minimizedAffinity>
-9.48229

>  <minimizedRMSD>
1.65258

$$$$
ChemDiv-G756-0381 MCULE-7138403707 MolPort-010-744-644 PubChem-50802164 ZINC000033268562 ZINC33268562


 33 36  0  0  0  0  0  0  0  0999 V2000
   16.8185   -9.9547   16.6877 C   0  0  0  0  0  0  0  0  0  0  0  0
   17.4177  -11.1665   17.0344 C   0  0  0  0  0  0  0  0  0  0  0  0
   18.0480  -11.9440   16.0623 C   0  0  0  0  0  0  0  0  0  0  0  0
   18.0919  -11.5218   14.7300 C   0  0  0  0  0  0  0  0  0  0  0  0
   18.7429  -12.4327   13.7474 C   0  0  0  0  0  0  0  0  0  0  0  0
   17.4858  -10.2931   14.3639 C   0  0  0  0  0  0  0  0  0  0  0  0
   16.8482   -9.5343   15.3520 C   0  0  0  0  0  0  0  0  0  0  0  0
   15.2931   -8.0647   17.5141 C   0  0  0  0  0  0  0  0  0  0  0  0
   15.1164   -7.5832   16.3622 O   0  0  0  0  0  0  0  0  0  0  0  0
   16.1647   -9.1896   17.7093 N   0  0  0  0  0  0  0  0  0  0  0  0
   16.3303   -9.4636   18.6403 H   0  0  0  0  0  0  0  0  0  0  0  0
   13.2756   -6.3421   20.8824 C   0  0  0  0  0  0  0  0  0  0  0  0
   14.4841   -7.0329   21.0579 C   0  0  0  0  0  0  0  0  0  0  0  0
   15.1423   -7.5903   19.9583 C   0  0  0  0  0  0  0  0  0  0  0  0
   14.6024   -7.4667   18.6703 C   0  0  0  0  0  0  0  0  0  0  0  0
   13.3932   -6.7790   18.4987 C   0  0  0  0  0  0  0  0  0  0  0  0
   12.7362   -6.2192   19.5985 C   0  0  0  0  0  0  0  0  0  0  0  0
   12.5940   -5.7726   21.9612 O   0  0  0  0  0  0  0  0  0  0  0  0
   12.2056   -4.9787   24.1917 C   0  0  0  0  0  0  0  0  0  0  0  0
   13.2423   -5.4085   23.1731 C   0  0  0  0  0  0  0  0  0  0  0  0
   17.4664   -9.7810   13.0583 O   0  0  0  0  0  0  0  0  0  0  0  0
   18.6142   -9.3651   12.3314 C   0  0  0  0  0  0  0  0  0  0  0  0
   18.2731   -9.2147   10.8918 C   0  0  0  0  0  0  0  0  0  0  0  0
   17.1295   -9.8236   10.3852 C   0  0  0  0  0  0  0  0  0  0  0  0
   16.8435   -9.6957    9.0262 C   0  0  0  0  0  0  0  0  0  0  0  0
   15.8117  -10.2569    8.5634 O   0  0  0  0  0  0  0  0  0  0  0  0
   17.6780   -8.9765    8.2137 N   0  0  0  0  0  0  0  0  0  0  0  0
   17.3975   -8.8518    6.8823 C   0  0  0  0  0  0  0  0  0  0  0  0
   18.2380   -8.1212    6.0407 C   0  0  0  0  0  0  0  0  0  0  0  0
   19.3748   -7.5130    6.5705 C   0  0  0  0  0  0  0  0  0  0  0  0
   19.6607   -7.6407    7.9285 C   0  0  0  0  0  0  0  0  0  0  0  0
   18.8002   -8.3777    8.7445 C   0  0  0  0  0  0  0  0  0  0  0  0
   19.0851   -8.5069   10.0661 N   0  0  0  0  0  0  0  0  0  0  0  0
 19 20  1  0  0  0
 20 18  1  0  0  0
 18 12  1  0  0  0
 12 13  2  0  0  0
 13 14  1  0  0  0
 14 15  2  0  0  0
 15 16  1  0  0  0
 15  8  1  0  0  0
 16 17  2  0  0  0
 17 12  1  0  0  0
  8  9  2  0  0  0
  8 10  1  0  0  0
 10  1  1  0  0  0
  1  2  2  0  0  0
  2  3  1  0  0  0
  3  4  2  0  0  0
  4  5  1  0  0  0
  4  6  1  0  0  0
  6 21  1  0  0  0
  6  7  2  0  0  0
 21 22  1  0  0  0
 22 23  1  0  0  0
 23 24  2  0  0  0
 24 25  1  0  0  0
 25 26  2  0  0  0
 25 27  1  0  0  0
 27 28  1  0  0  0
 28 29  2  0  0  0
 29 30  1  0  0  0
 30 31  2  0  0  0
 31 32  1  0  0  0
 32 33  2  0  0  0
 32 27  1  0  0  0
 33 23  1  0  0  0
  7  1  1  0  0  0
 10 11  1  0  0  0
M  END
>  <minimizedAffinity>
-9.47500

>  <minimizedRMSD>
1.47003

$$$$
ChemDiv-G795-0385 MCULE-4672401369 MolPort-010-745-026 ZINC000035447651


 32 35  0  0  0  0  0  0  0  0999 V2000
   17.3384   -9.8405   14.0807 C   0  0  0  0  0  0  0  0  0  0  0  0
   18.0586  -10.8834   14.7047 C   0  0  0  0  0  0  0  0  0  0  0  0
   18.9955  -11.7626   13.9489 C   0  0  0  0  0  0  0  0  0  0  0  0
   17.9576  -11.0640   16.0869 C   0  0  0  0  0  0  0  0  0  0  0  0
   17.1605  -10.2132   16.8549 C   0  0  0  0  0  0  0  0  0  0  0  0
   16.4646   -9.1592   16.2509 C   0  0  0  0  0  0  0  0  0  0  0  0
   16.5667   -8.9769   14.8654 C   0  0  0  0  0  0  0  0  0  0  0  0
   16.3555   -9.8324   11.7355 C   0  0  0  0  0  0  0  0  0  0  0  0
   15.1861  -10.0564   12.1506 O   0  0  0  0  0  0  0  0  0  0  0  0
   17.4127   -9.5903   12.6714 N   0  0  0  0  0  0  0  0  0  0  0  0
   18.2558   -9.2236   12.3193 H   0  0  0  0  0  0  0  0  0  0  0  0
   16.6068   -9.7776   10.2817 C   0  0  0  0  0  0  0  0  0  0  0  0
   17.6493   -9.0354    9.6662 C   0  0  0  0  0  0  0  0  0  0  0  0
   18.6133   -8.2359   10.2906 C   0  0  0  0  0  0  0  0  0  0  0  0
   19.5698   -7.5787    9.4975 C   0  0  0  0  0  0  0  0  0  0  0  0
   19.5591   -7.7228    8.0964 C   0  0  0  0  0  0  0  0  0  0  0  0
   18.5928   -8.5253    7.4712 C   0  0  0  0  0  0  0  0  0  0  0  0
   17.6618   -9.1605    8.2862 C   0  0  0  0  0  0  0  0  0  0  0  0
   16.4047  -10.1677    7.8883 S   0  0  0  0  0  0  0  0  0  0  0  0
   15.8137  -10.4738    9.4172 N   0  0  0  0  0  0  0  0  0  0  0  0
   15.6355   -8.2520   17.0633 C   0  0  0  0  0  0  0  0  0  0  0  0
   14.7758   -7.5143   16.5077 O   0  0  0  0  0  0  0  0  0  0  0  0
   15.8040   -8.2071   18.4824 N   0  0  0  0  0  0  0  0  0  0  0  0
   16.4801   -8.7877   18.9009 H   0  0  0  0  0  0  0  0  0  0  0  0
   15.0083   -7.3312   19.3267 C   0  0  0  0  0  0  0  0  0  0  0  0
   15.7401   -7.0585   20.5952 C   0  0  0  0  0  0  0  0  0  0  0  0
   17.0326   -6.5946   20.7159 C   0  0  0  0  0  0  0  0  0  0  0  0
   17.3293   -6.5459   22.0328 N   0  0  0  0  0  0  0  0  0  0  0  0
   16.2890   -6.9675   22.7382 N   0  0  0  0  0  0  0  0  0  0  0  0
   15.3095   -7.2907   21.8791 C   0  0  0  0  0  0  0  0  0  0  0  0
   13.9821   -7.8257   22.2890 C   0  0  0  0  0  0  0  0  0  0  0  0
   18.1866   -6.2436   22.4108 H   0  0  0  0  0  0  0  0  0  0  0  0
 12 13  1  0  0  0
 13 14  2  0  0  0
 14 15  1  0  0  0
 15 16  2  0  0  0
 16 17  1  0  0  0
 17 18  2  0  0  0
 18 19  1  0  0  0
 19 20  1  0  0  0
 12  8  1  0  0  0
  8  9  2  0  0  0
  8 10  1  0  0  0
 10  1  1  0  0  0
  1  2  2  0  0  0
  2  3  1  0  0  0
  2  4  1  0  0  0
  4  5  2  0  0  0
  5  6  1  0  0  0
  6  7  2  0  0  0
  6 21  1  0  0  0
 21 22  2  0  0  0
 21 23  1  0  0  0
 23 25  1  0  0  0
 25 26  1  0  0  0
 26 27  2  0  0  0
 27 28  1  0  0  0
 28 29  1  0  0  0
 29 30  2  0  0  0
 30 31  1  0  0  0
 20 12  2  0  0  0
  7  1  1  0  0  0
 30 26  1  0  0  0
 18 13  1  0  0  0
 10 11  1  0  0  0
 23 24  1  0  0  0
 28 32  1  0  0  0
M  END
>  <minimizedAffinity>
-9.47413

>  <minimizedRMSD>
1.33164

$$$$
ChemDiv-G756-0398 MCULE-3366005722 MolPort-007-879-128 PubChem-46355995 ZINC000021156695 ZINC21156695


 34 37  0  0  0  0  0  0  0  0999 V2000
   17.3605   -9.7549   16.5806 C   0  0  0  0  0  0  0  0  0  0  0  0
   17.7354  -11.0595   16.9142 C   0  0  0  0  0  0  0  0  0  0  0  0
   18.1474  -11.9522   15.9225 C   0  0  0  0  0  0  0  0  0  0  0  0
   18.1898  -11.5482   14.5854 C   0  0  0  0  0  0  0  0  0  0  0  0
   18.6330  -12.5224   13.5490 C   0  0  0  0  0  0  0  0  0  0  0  0
   17.8143  -10.2419   14.2330 C   0  0  0  0  0  0  0  0  0  0  0  0
   17.4015   -9.3522   15.2382 C   0  0  0  0  0  0  0  0  0  0  0  0
   15.4245   -7.4622   18.9609 N   0  0  0  0  0  0  0  0  0  0  0  0
   15.6279   -8.3698   17.8707 C   0  0  0  0  0  0  0  0  0  0  0  0
   14.6640   -8.7238   17.1399 O   0  0  0  0  0  0  0  0  0  0  0  0
   16.9509   -8.8663   17.6290 N   0  0  0  0  0  0  0  0  0  0  0  0
   16.2208   -7.2237   19.4885 H   0  0  0  0  0  0  0  0  0  0  0  0
   17.6536   -8.5650   18.2493 H   0  0  0  0  0  0  0  0  0  0  0  0
   11.7828   -5.6967   20.2353 C   0  0  0  0  0  0  0  0  0  0  0  0
   12.7769   -6.0372   21.1613 C   0  0  0  0  0  0  0  0  0  0  0  0
   13.9707   -6.6203   20.7264 C   0  0  0  0  0  0  0  0  0  0  0  0
   14.1854   -6.8639   19.3657 C   0  0  0  0  0  0  0  0  0  0  0  0
   13.1881   -6.5169   18.4411 C   0  0  0  0  0  0  0  0  0  0  0  0
   11.9928   -5.9335   18.8739 C   0  0  0  0  0  0  0  0  0  0  0  0
   10.7666   -4.1341   21.8624 C   0  0  0  0  0  0  0  0  0  0  0  0
   10.5117   -5.0587   20.6857 C   0  0  0  0  0  0  0  0  0  0  0  0
   17.8599   -9.8475   12.8915 O   0  0  0  0  0  0  0  0  0  0  0  0
   16.7038   -9.4586   12.1614 C   0  0  0  0  0  0  0  0  0  0  0  0
   17.0505   -9.3151   10.7223 C   0  0  0  0  0  0  0  0  0  0  0  0
   16.4195  -10.1096    9.7688 C   0  0  0  0  0  0  0  0  0  0  0  0
   16.7900   -9.9762    8.4316 C   0  0  0  0  0  0  0  0  0  0  0  0
   16.2192  -10.6953    7.5654 O   0  0  0  0  0  0  0  0  0  0  0  0
   17.7605   -9.0786    8.0735 N   0  0  0  0  0  0  0  0  0  0  0  0
   18.1232   -8.9486    6.7624 C   0  0  0  0  0  0  0  0  0  0  0  0
   19.1142   -8.0416    6.3809 C   0  0  0  0  0  0  0  0  0  0  0  0
   19.7390   -7.2638    7.3537 C   0  0  0  0  0  0  0  0  0  0  0  0
   19.3706   -7.3981    8.6910 C   0  0  0  0  0  0  0  0  0  0  0  0
   18.3740   -8.3126    9.0406 C   0  0  0  0  0  0  0  0  0  0  0  0
   18.0159   -8.4402   10.3440 N   0  0  0  0  0  0  0  0  0  0  0  0
 20 21  1  0  0  0
 21 14  1  0  0  0
 14 15  2  0  0  0
 15 16  1  0  0  0
 16 17  2  0  0  0
 17  8  1  0  0  0
 17 18  1  0  0  0
  8  9  1  0  0  0
  9 10  2  0  0  0
  9 11  1  0  0  0
 11  1  1  0  0  0
  1  2  2  0  0  0
  2  3  1  0  0  0
  3  4  2  0  0  0
  4  5  1  0  0  0
  4  6  1  0  0  0
  6 22  1  0  0  0
  6  7  2  0  0  0
 22 23  1  0  0  0
 23 24  1  0  0  0
 24 25  2  0  0  0
 25 26  1  0  0  0
 26 27  2  0  0  0
 26 28  1  0  0  0
 28 29  1  0  0  0
 29 30  2  0  0  0
 30 31  1  0  0  0
 31 32  2  0  0  0
 32 33  1  0  0  0
 33 34  2  0  0  0
 33 28  1  0  0  0
 34 24  1  0  0  0
  7  1  1  0  0  0
 18 19  2  0  0  0
 19 14  1  0  0  0
  8 12  1  0  0  0
 11 13  1  0  0  0
M  END
>  <minimizedAffinity>
-9.46898

>  <minimizedRMSD>
1.33111

$$$$
ChemDiv-G357-0307 MCULE-2128511012 MolPort-007-847-133 PubChem-46343247 ZINC000015771502


 34 37  0  0  0  0  0  0  0  0999 V2000
   18.0394  -10.8623   13.3960 C   0  0  0  0  0  0  0  0  0  0  0  0
   18.3125  -12.0947   13.3863 O   0  0  0  0  0  0  0  0  0  0  0  0
   17.4993  -10.2364   14.6136 C   0  0  0  0  0  0  0  0  0  0  0  0
   17.6301  -10.8677   15.8583 C   0  0  0  0  0  0  0  0  0  0  0  0
   17.1175  -10.2672   17.0118 C   0  0  0  0  0  0  0  0  0  0  0  0
   16.4679   -9.0312   16.9377 C   0  0  0  0  0  0  0  0  0  0  0  0
   16.3374   -8.3988   15.6923 C   0  0  0  0  0  0  0  0  0  0  0  0
   16.8496   -8.9978   14.5383 C   0  0  0  0  0  0  0  0  0  0  0  0
   15.9601   -8.4457   18.1443 N   0  0  0  0  0  0  0  0  0  0  0  0
   14.7704   -7.6533   18.2835 C   0  0  0  0  0  0  0  0  0  0  0  0
   14.0237   -7.4365   17.2906 O   0  0  0  0  0  0  0  0  0  0  0  0
   16.4822   -8.6036   18.9639 H   0  0  0  0  0  0  0  0  0  0  0  0
   14.4165   -7.0930   19.5996 C   0  0  0  0  0  0  0  0  0  0  0  0
   15.3012   -7.2119   20.6816 C   0  0  0  0  0  0  0  0  0  0  0  0
   14.9677   -6.6781   21.9299 C   0  0  0  0  0  0  0  0  0  0  0  0
   13.7467   -6.0219   22.1054 C   0  0  0  0  0  0  0  0  0  0  0  0
   12.8590   -5.9002   21.0334 C   0  0  0  0  0  0  0  0  0  0  0  0
   11.3296   -5.0787   21.2528 Cl  0  0  0  0  0  0  0  0  0  0  0  0
   13.1929   -6.4332   19.7851 C   0  0  0  0  0  0  0  0  0  0  0  0
   18.2498  -10.0863   12.2541 O   0  0  0  0  0  0  0  0  0  0  0  0
   17.1948   -9.3726   11.6263 C   0  0  0  0  0  0  0  0  0  0  0  0
   17.9826   -8.9290    7.5078 N   0  0  0  0  0  0  0  0  0  0  0  0
   16.9972   -9.7888    7.8777 C   0  0  0  0  0  0  0  0  0  0  0  0
   16.3376  -10.4267    7.0148 O   0  0  0  0  0  0  0  0  0  0  0  0
   16.7235   -9.9557    9.2397 C   0  0  0  0  0  0  0  0  0  0  0  0
   17.4827   -9.2329   10.1745 C   0  0  0  0  0  0  0  0  0  0  0  0
   18.4565   -8.3761    9.7557 N   0  0  0  0  0  0  0  0  0  0  0  0
   18.6915   -8.2416    8.4276 C   0  0  0  0  0  0  0  0  0  0  0  0
   19.8412   -7.2471    7.7148 S   0  0  0  0  0  0  0  0  0  0  0  0
   19.3485   -7.7776    6.1741 C   0  0  0  0  0  0  0  0  0  0  0  0
   18.3394   -8.6788    6.2503 N   0  0  0  0  0  0  0  0  0  0  0  0
   19.9291   -7.3228    4.8759 C   0  0  0  0  0  0  0  0  0  0  0  0
   21.4137   -7.0527    5.0216 C   0  0  0  0  0  0  0  0  0  0  0  0
   19.6952   -8.3584    3.7937 C   0  0  0  0  0  0  0  0  0  0  0  0
 22 23  1  0  0  0
 23 24  2  0  0  0
 23 25  1  0  0  0
 25 26  2  0  0  0
 26 27  1  0  0  0
 27 28  2  0  0  0
 28 29  1  0  0  0
 29 30  1  0  0  0
 30 32  1  0  0  0
 32 33  1  0  0  0
 32 34  1  0  0  0
 30 31  2  0  0  0
 26 21  1  0  0  0
 21 20  1  0  0  0
 20  1  1  0  0  0
  1  2  2  0  0  0
  1  3  1  0  0  0
  3  4  2  0  0  0
  4  5  1  0  0  0
  5  6  2  0  0  0
  6  7  1  0  0  0
  7  8  2  0  0  0
  6  9  1  0  0  0
  9 10  1  0  0  0
 10 11  2  0  0  0
 10 13  1  0  0  0
 13 14  2  0  0  0
 14 15  1  0  0  0
 15 16  2  0  0  0
 16 17  1  0  0  0
 17 18  1  0  0  0
 17 19  2  0  0  0
 28 22  1  0  0  0
  8  3  1  0  0  0
 19 13  1  0  0  0
 31 22  1  0  0  0
  9 12  1  0  0  0
M  END
>  <minimizedAffinity>
-9.46818

>  <minimizedRMSD>
1.27809

$$$$
ChemDiv-G756-2307 MCULE-6387679709 MolPort-007-880-008 PubChem-46356741 ZINC000033068267 ZINC33068267


 34 37  0  0  0  0  0  0  0  0999 V2000
   16.7471   -9.3172   16.6891 C   0  0  0  0  0  0  0  0  0  0  0  0
   16.5827   -8.8896   15.3626 C   0  0  0  0  0  0  0  0  0  0  0  0
   17.0849   -9.6478   14.3003 C   0  0  0  0  0  0  0  0  0  0  0  0
   17.7602  -10.8485   14.5700 C   0  0  0  0  0  0  0  0  0  0  0  0
   17.9280  -11.2799   15.8880 C   0  0  0  0  0  0  0  0  0  0  0  0
   17.4229  -10.5152   16.9429 C   0  0  0  0  0  0  0  0  0  0  0  0
   14.6664   -7.1627   19.0764 N   0  0  0  0  0  0  0  0  0  0  0  0
   14.9808   -7.8905   17.8821 C   0  0  0  0  0  0  0  0  0  0  0  0
   14.1612   -7.9444   16.9260 O   0  0  0  0  0  0  0  0  0  0  0  0
   16.2454   -8.5600   17.7991 N   0  0  0  0  0  0  0  0  0  0  0  0
   15.3523   -7.1672   19.7826 H   0  0  0  0  0  0  0  0  0  0  0  0
   16.8315   -8.4931   18.5873 H   0  0  0  0  0  0  0  0  0  0  0  0
   13.2722   -5.8140   20.6289 C   0  0  0  0  0  0  0  0  0  0  0  0
   13.4654   -6.4274   19.3614 C   0  0  0  0  0  0  0  0  0  0  0  0
   12.4617   -6.3042   18.3866 C   0  0  0  0  0  0  0  0  0  0  0  0
   11.2899   -5.5939   18.6463 C   0  0  0  0  0  0  0  0  0  0  0  0
   11.1034   -4.9938   19.8894 C   0  0  0  0  0  0  0  0  0  0  0  0
   12.0890   -5.1051   20.8703 C   0  0  0  0  0  0  0  0  0  0  0  0
   14.2901   -6.9054   22.6461 C   0  0  0  0  0  0  0  0  0  0  0  0
   14.2000   -5.8667   21.6816 O   0  0  0  0  0  0  0  0  0  0  0  0
   16.9004   -9.1872   12.9943 O   0  0  0  0  0  0  0  0  0  0  0  0
   16.1936   -9.9311   12.0105 C   0  0  0  0  0  0  0  0  0  0  0  0
   16.7583   -9.6422   10.6660 C   0  0  0  0  0  0  0  0  0  0  0  0
   16.1987  -10.2286    9.5346 C   0  0  0  0  0  0  0  0  0  0  0  0
   16.7306   -9.9185    8.2839 C   0  0  0  0  0  0  0  0  0  0  0  0
   16.2274  -10.4518    7.2572 O   0  0  0  0  0  0  0  0  0  0  0  0
   17.7810   -9.0460    8.1809 N   0  0  0  0  0  0  0  0  0  0  0  0
   18.3012   -8.7423    6.9543 C   0  0  0  0  0  0  0  0  0  0  0  0
   19.3692   -7.8521    6.8328 C   0  0  0  0  0  0  0  0  0  0  0  0
   20.0238   -7.4705    5.2554 Cl  0  0  0  0  0  0  0  0  0  0  0  0
   19.9080   -7.2679    7.9774 C   0  0  0  0  0  0  0  0  0  0  0  0
   19.3772   -7.5785    9.2279 C   0  0  0  0  0  0  0  0  0  0  0  0
   18.3087   -8.4739    9.3179 C   0  0  0  0  0  0  0  0  0  0  0  0
   17.7928   -8.7740   10.5377 N   0  0  0  0  0  0  0  0  0  0  0  0
 19 20  1  0  0  0
 20 13  1  0  0  0
 13 14  2  0  0  0
 14  7  1  0  0  0
 14 15  1  0  0  0
  7  8  1  0  0  0
  8  9  2  0  0  0
  8 10  1  0  0  0
 10  1  1  0  0  0
  1  2  2  0  0  0
  2  3  1  0  0  0
  3 21  1  0  0  0
  3  4  2  0  0  0
 21 22  1  0  0  0
 22 23  1  0  0  0
 23 24  2  0  0  0
 24 25  1  0  0  0
 25 26  2  0  0  0
 25 27  1  0  0  0
 27 28  1  0  0  0
 28 29  2  0  0  0
 29 30  1  0  0  0
 29 31  1  0  0  0
 31 32  2  0  0  0
 32 33  1  0  0  0
 33 34  2  0  0  0
 33 27  1  0  0  0
 34 23  1  0  0  0
  4  5  1  0  0  0
  5  6  2  0  0  0
  6  1  1  0  0  0
 15 16  2  0  0  0
 16 17  1  0  0  0
 17 18  2  0  0  0
 18 13  1  0  0  0
  7 11  1  0  0  0
 10 12  1  0  0  0
M  END
>  <minimizedAffinity>
-9.45867

>  <minimizedRMSD>
1.42154

$$$$
ChemDiv-G756-0180 MCULE-9601651861 MolPort-007-879-007 PubChem-46355902 ZINC000021099544 ZINC21099544


 32 35  0  0  0  0  0  0  0  0999 V2000
   16.7415   -9.3317   17.1754 C   0  0  0  0  0  0  0  0  0  0  0  0
   16.8154   -8.9938   15.8153 C   0  0  0  0  0  0  0  0  0  0  0  0
   17.3326   -9.8977   14.8821 C   0  0  0  0  0  0  0  0  0  0  0  0
   17.7795  -11.1557   15.3160 C   0  0  0  0  0  0  0  0  0  0  0  0
   17.7070  -11.4992   16.6677 C   0  0  0  0  0  0  0  0  0  0  0  0
   17.1888  -10.5893   17.5930 C   0  0  0  0  0  0  0  0  0  0  0  0
   14.5646   -6.9385   19.2252 N   0  0  0  0  0  0  0  0  0  0  0  0
   14.9335   -7.7808   18.1258 C   0  0  0  0  0  0  0  0  0  0  0  0
   14.1502   -7.9487   17.1527 O   0  0  0  0  0  0  0  0  0  0  0  0
   16.2119   -8.4278   18.1550 N   0  0  0  0  0  0  0  0  0  0  0  0
   15.2112   -6.8738   19.9647 H   0  0  0  0  0  0  0  0  0  0  0  0
   16.7874   -8.2310   18.9291 H   0  0  0  0  0  0  0  0  0  0  0  0
   14.2092   -5.6075   21.9248 Cl  0  0  0  0  0  0  0  0  0  0  0  0
   13.0885   -5.5158   20.5765 C   0  0  0  0  0  0  0  0  0  0  0  0
   13.3535   -6.1786   19.3650 C   0  0  0  0  0  0  0  0  0  0  0  0
   12.4272   -6.0769   18.3150 C   0  0  0  0  0  0  0  0  0  0  0  0
   11.2565   -5.3300   18.4690 C   0  0  0  0  0  0  0  0  0  0  0  0
   11.0005   -4.6761   19.6755 C   0  0  0  0  0  0  0  0  0  0  0  0
   11.9151   -4.7693   20.7267 C   0  0  0  0  0  0  0  0  0  0  0  0
   17.3892   -9.5234   13.5372 O   0  0  0  0  0  0  0  0  0  0  0  0
   18.3379  -10.0672   12.6287 C   0  0  0  0  0  0  0  0  0  0  0  0
   17.9825   -9.6731   11.2399 C   0  0  0  0  0  0  0  0  0  0  0  0
   16.7739  -10.0862   10.6878 C   0  0  0  0  0  0  0  0  0  0  0  0
   16.4555   -9.6859    9.3910 C   0  0  0  0  0  0  0  0  0  0  0  0
   15.3616  -10.0623    8.8872 O   0  0  0  0  0  0  0  0  0  0  0  0
   17.3215   -8.8957    8.6835 N   0  0  0  0  0  0  0  0  0  0  0  0
   17.0093   -8.5057    7.4113 C   0  0  0  0  0  0  0  0  0  0  0  0
   17.8789   -7.6967    6.6777 C   0  0  0  0  0  0  0  0  0  0  0  0
   19.0783   -7.2841    7.2550 C   0  0  0  0  0  0  0  0  0  0  0  0
   19.3967   -7.6822    8.5522 C   0  0  0  0  0  0  0  0  0  0  0  0
   18.5063   -8.4934    9.2599 C   0  0  0  0  0  0  0  0  0  0  0  0
   18.8196   -8.8818   10.5231 N   0  0  0  0  0  0  0  0  0  0  0  0
 13 14  1  0  0  0
 14 15  2  0  0  0
 15  7  1  0  0  0
 15 16  1  0  0  0
  7  8  1  0  0  0
  8  9  2  0  0  0
  8 10  1  0  0  0
 10  1  1  0  0  0
  1  2  2  0  0  0
  2  3  1  0  0  0
  3 20  1  0  0  0
  3  4  2  0  0  0
 20 21  1  0  0  0
 21 22  1  0  0  0
 22 23  2  0  0  0
 23 24  1  0  0  0
 24 25  2  0  0  0
 24 26  1  0  0  0
 26 27  1  0  0  0
 27 28  2  0  0  0
 28 29  1  0  0  0
 29 30  2  0  0  0
 30 31  1  0  0  0
 31 32  2  0  0  0
 31 26  1  0  0  0
 32 22  1  0  0  0
  4  5  1  0  0  0
  5  6  2  0  0  0
  6  1  1  0  0  0
 16 17  2  0  0  0
 17 18  1  0  0  0
 18 19  2  0  0  0
 19 14  1  0  0  0
  7 11  1  0  0  0
 10 12  1  0  0  0
M  END
>  <minimizedAffinity>
-9.45834

>  <minimizedRMSD>
1.33921

$$$$
ChemDiv-G756-1027 MCULE-6435622462 MolPort-010-744-709 PubChem-50802615 ZINC000033268630 ZINC33268630


 33 36  0  0  0  0  0  0  0  0999 V2000
   16.8218   -9.9821   16.6983 C   0  0  0  0  0  0  0  0  0  0  0  0
   16.7940   -9.5804   15.3539 C   0  0  0  0  0  0  0  0  0  0  0  0
   17.4495  -10.3287   14.3713 C   0  0  0  0  0  0  0  0  0  0  0  0
   18.1409  -11.4935   14.7395 C   0  0  0  0  0  0  0  0  0  0  0  0
   18.1708  -11.9006   16.0756 C   0  0  0  0  0  0  0  0  0  0  0  0
   17.5121  -11.1466   17.0502 C   0  0  0  0  0  0  0  0  0  0  0  0
   15.3149   -8.0869   17.5503 C   0  0  0  0  0  0  0  0  0  0  0  0
   15.1342   -7.5948   16.4036 O   0  0  0  0  0  0  0  0  0  0  0  0
   16.1548   -9.2381   17.7271 N   0  0  0  0  0  0  0  0  0  0  0  0
   16.2865   -9.5494   18.6518 H   0  0  0  0  0  0  0  0  0  0  0  0
   13.4303   -6.2949   20.9594 C   0  0  0  0  0  0  0  0  0  0  0  0
   14.6450   -6.9729   21.0989 C   0  0  0  0  0  0  0  0  0  0  0  0
   15.2599   -7.5563   19.9876 C   0  0  0  0  0  0  0  0  0  0  0  0
   14.6662   -7.4694   18.7209 C   0  0  0  0  0  0  0  0  0  0  0  0
   13.4480   -6.7893   18.5810 C   0  0  0  0  0  0  0  0  0  0  0  0
   12.8337   -6.2049   19.6919 C   0  0  0  0  0  0  0  0  0  0  0  0
   12.8400   -5.7234   22.0902 O   0  0  0  0  0  0  0  0  0  0  0  0
   10.8569   -4.9629   23.2037 C   0  0  0  0  0  0  0  0  0  0  0  0
   11.7715   -4.7896   22.0099 C   0  0  0  0  0  0  0  0  0  0  0  0
   17.3968   -9.8953   13.0440 O   0  0  0  0  0  0  0  0  0  0  0  0
   18.5508   -9.4781   12.3262 C   0  0  0  0  0  0  0  0  0  0  0  0
   18.2201   -9.3475   10.8827 C   0  0  0  0  0  0  0  0  0  0  0  0
   17.0310   -9.8772   10.3914 C   0  0  0  0  0  0  0  0  0  0  0  0
   16.7343   -9.7212    9.0382 C   0  0  0  0  0  0  0  0  0  0  0  0
   15.6585  -10.2036    8.5899 O   0  0  0  0  0  0  0  0  0  0  0  0
   17.6015   -9.0512    8.2171 N   0  0  0  0  0  0  0  0  0  0  0  0
   17.3095   -8.8996    6.8906 C   0  0  0  0  0  0  0  0  0  0  0  0
   18.1808   -8.2167    6.0403 C   0  0  0  0  0  0  0  0  0  0  0  0
   19.3606   -7.6844    6.5566 C   0  0  0  0  0  0  0  0  0  0  0  0
   20.2988   -6.9513    5.6672 C   0  0  0  0  0  0  0  0  0  0  0  0
   19.6587   -7.8403    7.9088 C   0  0  0  0  0  0  0  0  0  0  0  0
   18.7672   -8.5298    8.7337 C   0  0  0  0  0  0  0  0  0  0  0  0
   19.0599   -8.6811   10.0512 N   0  0  0  0  0  0  0  0  0  0  0  0
 18 19  1  0  0  0
 19 17  1  0  0  0
 17 11  1  0  0  0
 11 12  2  0  0  0
 12 13  1  0  0  0
 13 14  2  0  0  0
 14 15  1  0  0  0
 14  7  1  0  0  0
 15 16  2  0  0  0
 16 11  1  0  0  0
  7  8  2  0  0  0
  7  9  1  0  0  0
  9  1  1  0  0  0
  1  2  2  0  0  0
  2  3  1  0  0  0
  3 20  1  0  0  0
  3  4  2  0  0  0
 20 21  1  0  0  0
 21 22  1  0  0  0
 22 23  2  0  0  0
 23 24  1  0  0  0
 24 25  2  0  0  0
 24 26  1  0  0  0
 26 27  1  0  0  0
 27 28  2  0  0  0
 28 29  1  0  0  0
 29 30  1  0  0  0
 29 31  2  0  0  0
 31 32  1  0  0  0
 32 33  2  0  0  0
 32 26  1  0  0  0
 33 22  1  0  0  0
  4  5  1  0  0  0
  5  6  2  0  0  0
  6  1  1  0  0  0
  9 10  1  0  0  0
M  END
>  <minimizedAffinity>
-9.44631

>  <minimizedRMSD>
1.11789

$$$$
ChemDiv-G756-0356 MCULE-8012339124 MolPort-010-744-630 PubChem-50802116 ZINC000033268545 ZINC33268545


 34 37  0  0  0  0  0  0  0  0999 V2000
   16.8223   -9.7645   16.7966 C   0  0  0  0  0  0  0  0  0  0  0  0
   17.3122  -11.0026   17.2134 C   0  0  0  0  0  0  0  0  0  0  0  0
   17.8673  -11.8880   16.2893 C   0  0  0  0  0  0  0  0  0  0  0  0
   17.9432  -11.5505   14.9343 C   0  0  0  0  0  0  0  0  0  0  0  0
   18.5424  -12.5614   14.0192 C   0  0  0  0  0  0  0  0  0  0  0  0
   17.4504  -10.2925   14.4962 C   0  0  0  0  0  0  0  0  0  0  0  0
   16.8960   -9.4211   15.4405 C   0  0  0  0  0  0  0  0  0  0  0  0
   15.1897   -7.9451   17.5672 C   0  0  0  0  0  0  0  0  0  0  0  0
   14.6402   -7.8173   16.4422 O   0  0  0  0  0  0  0  0  0  0  0  0
   16.2564   -8.8803   17.7736 N   0  0  0  0  0  0  0  0  0  0  0  0
   16.6400   -8.9195   18.6794 H   0  0  0  0  0  0  0  0  0  0  0  0
   14.7334   -7.0974   18.6997 C   0  0  0  0  0  0  0  0  0  0  0  0
   15.0660   -7.7270   19.9310 O   0  0  0  0  0  0  0  0  0  0  0  0
   13.9115   -5.4904   25.0424 C   0  0  0  0  0  0  0  0  0  0  0  0
   14.1776   -6.0663   23.6925 C   0  0  0  0  0  0  0  0  0  0  0  0
   15.4231   -6.6493   23.4436 C   0  0  0  0  0  0  0  0  0  0  0  0
   15.7081   -7.1980   22.1902 C   0  0  0  0  0  0  0  0  0  0  0  0
   14.7508   -7.1696   21.1728 C   0  0  0  0  0  0  0  0  0  0  0  0
   13.5000   -6.5841   21.4214 C   0  0  0  0  0  0  0  0  0  0  0  0
   13.2087   -6.0324   22.6732 C   0  0  0  0  0  0  0  0  0  0  0  0
   11.8671   -5.4235   22.8946 C   0  0  0  0  0  0  0  0  0  0  0  0
   17.4725   -9.8445   13.1652 O   0  0  0  0  0  0  0  0  0  0  0  0
   18.6400   -9.5548   12.4114 C   0  0  0  0  0  0  0  0  0  0  0  0
   18.2772   -9.3609   10.9839 C   0  0  0  0  0  0  0  0  0  0  0  0
   17.0977   -9.9068   10.4881 C   0  0  0  0  0  0  0  0  0  0  0  0
   16.7665   -9.6924    9.1512 C   0  0  0  0  0  0  0  0  0  0  0  0
   15.6987  -10.1906    8.6992 O   0  0  0  0  0  0  0  0  0  0  0  0
   17.5928   -8.9509    8.3495 N   0  0  0  0  0  0  0  0  0  0  0  0
   17.2669   -8.7415    7.0388 C   0  0  0  0  0  0  0  0  0  0  0  0
   18.0978   -7.9879    6.2071 C   0  0  0  0  0  0  0  0  0  0  0  0
   19.2719   -7.4461    6.7257 C   0  0  0  0  0  0  0  0  0  0  0  0
   19.6030   -7.6588    8.0632 C   0  0  0  0  0  0  0  0  0  0  0  0
   18.7515   -8.4170    8.8696 C   0  0  0  0  0  0  0  0  0  0  0  0
   19.0762   -8.6241   10.1722 N   0  0  0  0  0  0  0  0  0  0  0  0
 14 15  1  0  0  0
 15 16  2  0  0  0
 16 17  1  0  0  0
 17 18  2  0  0  0
 18 13  1  0  0  0
 18 19  1  0  0  0
 13 12  1  0  0  0
 12  8  1  0  0  0
  8  9  2  0  0  0
  8 10  1  0  0  0
 10  1  1  0  0  0
  1  2  2  0  0  0
  2  3  1  0  0  0
  3  4  2  0  0  0
  4  5  1  0  0  0
  4  6  1  0  0  0
  6 22  1  0  0  0
  6  7  2  0  0  0
 22 23  1  0  0  0
 23 24  1  0  0  0
 24 25  2  0  0  0
 25 26  1  0  0  0
 26 27  2  0  0  0
 26 28  1  0  0  0
 28 29  1  0  0  0
 29 30  2  0  0  0
 30 31  1  0  0  0
 31 32  2  0  0  0
 32 33  1  0  0  0
 33 34  2  0  0  0
 33 28  1  0  0  0
 34 24  1  0  0  0
  7  1  1  0  0  0
 19 20  2  0  0  0
 20 21  1  0  0  0
 20 15  1  0  0  0
 10 11  1  0  0  0
M  END
>  <minimizedAffinity>
-9.44559

>  <minimizedRMSD>
1.63545

$$$$
ChemDiv-C679-5384 MCULE-3011173779 MolPort-010-797-221 PubChem-52098571 ZINC000041085734 ZINC41085734


 32 35  0  0  0  0  0  0  0  0999 V2000
   16.7964   -9.4597   13.9812 C   0  0  0  0  0  0  0  0  0  0  0  0
   18.0789  -10.0302   13.9606 C   0  0  0  0  0  0  0  0  0  0  0  0
   18.7982  -10.1859   15.1479 C   0  0  0  0  0  0  0  0  0  0  0  0
   18.2415   -9.7725   16.3610 C   0  0  0  0  0  0  0  0  0  0  0  0
   16.9648   -9.2021   16.3966 C   0  0  0  0  0  0  0  0  0  0  0  0
   16.2473   -9.0496   15.2003 C   0  0  0  0  0  0  0  0  0  0  0  0
   16.4291   -8.7900   17.6611 N   0  0  0  0  0  0  0  0  0  0  0  0
   15.2924   -7.9433   17.8758 C   0  0  0  0  0  0  0  0  0  0  0  0
   14.6475   -7.4560   16.9099 O   0  0  0  0  0  0  0  0  0  0  0  0
   16.8895   -9.1229   18.4651 H   0  0  0  0  0  0  0  0  0  0  0  0
   14.8627   -7.6357   19.2691 C   0  0  0  0  0  0  0  0  0  0  0  0
   13.4521   -7.7868   19.3962 O   0  0  0  0  0  0  0  0  0  0  0  0
   12.6145   -6.7947   19.9227 C   0  0  0  0  0  0  0  0  0  0  0  0
   11.4264   -6.4642   19.2508 C   0  0  0  0  0  0  0  0  0  0  0  0
   10.9839   -7.2695   17.7568 Cl  0  0  0  0  0  0  0  0  0  0  0  0
   10.5792   -5.4785   19.7669 C   0  0  0  0  0  0  0  0  0  0  0  0
   10.9091   -4.8185   20.9531 C   0  0  0  0  0  0  0  0  0  0  0  0
   12.0886   -5.1421   21.6276 C   0  0  0  0  0  0  0  0  0  0  0  0
   12.9378   -6.1261   21.1155 C   0  0  0  0  0  0  0  0  0  0  0  0
   16.0510   -9.2891   12.8119 O   0  0  0  0  0  0  0  0  0  0  0  0
   15.9614  -10.2904   11.8066 C   0  0  0  0  0  0  0  0  0  0  0  0
   18.4681   -8.5683    5.8756 C   0  0  0  0  0  0  0  0  0  0  0  0
   18.6964   -8.3658    7.3364 C   0  0  0  0  0  0  0  0  0  0  0  0
   19.7467   -7.5644    7.7940 C   0  0  0  0  0  0  0  0  0  0  0  0
   19.6874   -7.5692    9.4855 S   0  0  0  0  0  0  0  0  0  0  0  0
   18.3525   -8.5734    9.5496 C   0  0  0  0  0  0  0  0  0  0  0  0
   17.7395   -9.0071   10.6781 N   0  0  0  0  0  0  0  0  0  0  0  0
   16.6588   -9.8282   10.5775 C   0  0  0  0  0  0  0  0  0  0  0  0
   16.1767  -10.2080    9.3176 C   0  0  0  0  0  0  0  0  0  0  0  0
   16.8339   -9.7422    8.1739 C   0  0  0  0  0  0  0  0  0  0  0  0
   16.4120  -10.0814    7.0364 O   0  0  0  0  0  0  0  0  0  0  0  0
   17.9225   -8.9259    8.3178 N   0  0  0  0  0  0  0  0  0  0  0  0
 22 23  1  0  0  0
 23 24  2  0  0  0
 24 25  1  0  0  0
 25 26  1  0  0  0
 26 27  2  0  0  0
 27 28  1  0  0  0
 28 21  1  0  0  0
 28 29  2  0  0  0
 21 20  1  0  0  0
 20  1  1  0  0  0
  1  2  2  0  0  0
  2  3  1  0  0  0
  3  4  2  0  0  0
  4  5  1  0  0  0
  5  7  1  0  0  0
  5  6  2  0  0  0
  7  8  1  0  0  0
  8  9  2  0  0  0
  8 11  1  0  0  0
 11 12  1  0  0  0
 12 13  1  0  0  0
 13 14  2  0  0  0
 14 15  1  0  0  0
 14 16  1  0  0  0
 16 17  2  0  0  0
 17 18  1  0  0  0
 18 19  2  0  0  0
 19 13  1  0  0  0
  6  1  1  0  0  0
 29 30  1  0  0  0
 30 31  2  0  0  0
 30 32  1  0  0  0
 32 23  1  0  0  0
 32 26  1  0  0  0
  7 10  1  0  0  0
M  END
>  <minimizedAffinity>
-9.44525

>  <minimizedRMSD>
2.01401

$$$$
ChemDiv-G357-1280 CHEMBL1445818 MCULE-4445101629 MolPort-007-847-478 PubChem-16027472 ZINC000008607113 ZINC08607113


 36 40  0  0  0  0  0  0  0  0999 V2000
   16.2147   -8.7549   16.7905 C   0  0  0  0  0  0  0  0  0  0  0  0
   16.7400  -10.0310   16.5641 C   0  0  0  0  0  0  0  0  0  0  0  0
   17.0133  -10.4633   15.2633 C   0  0  0  0  0  0  0  0  0  0  0  0
   16.7628   -9.6220   14.1703 C   0  0  0  0  0  0  0  0  0  0  0  0
   16.2361   -8.3438   14.3959 C   0  0  0  0  0  0  0  0  0  0  0  0
   15.9638   -7.9128   15.6971 C   0  0  0  0  0  0  0  0  0  0  0  0
   14.8090   -7.6101   18.6025 C   0  0  0  0  0  0  0  0  0  0  0  0
   13.9188   -7.2108   17.8061 O   0  0  0  0  0  0  0  0  0  0  0  0
   15.9467   -8.3488   18.1394 N   0  0  0  0  0  0  0  0  0  0  0  0
   16.6131   -8.6038   18.8177 H   0  0  0  0  0  0  0  0  0  0  0  0
   14.6993   -7.2731   20.0459 C   0  0  0  0  0  0  0  0  0  0  0  0
   15.9768   -6.9014   20.5463 O   0  0  0  0  0  0  0  0  0  0  0  0
   17.2411   -6.7384   25.9535 F   0  0  0  0  0  0  0  0  0  0  0  0
   16.9242   -6.7812   24.6375 C   0  0  0  0  0  0  0  0  0  0  0  0
   15.6572   -7.2146   24.2374 C   0  0  0  0  0  0  0  0  0  0  0  0
   15.3307   -7.2586   22.8789 C   0  0  0  0  0  0  0  0  0  0  0  0
   16.2718   -6.8680   21.9117 C   0  0  0  0  0  0  0  0  0  0  0  0
   17.5379   -6.4352   22.3205 C   0  0  0  0  0  0  0  0  0  0  0  0
   17.8643   -6.3915   23.6794 C   0  0  0  0  0  0  0  0  0  0  0  0
   17.0469  -10.0720   12.7982 C   0  0  0  0  0  0  0  0  0  0  0  0
   17.8341  -11.0386   12.5999 O   0  0  0  0  0  0  0  0  0  0  0  0
   16.4398   -9.4261   11.7188 O   0  0  0  0  0  0  0  0  0  0  0  0
   16.3673  -10.0214   10.4315 C   0  0  0  0  0  0  0  0  0  0  0  0
   17.3439   -9.3643    9.5233 C   0  0  0  0  0  0  0  0  0  0  0  0
   18.5013   -8.7712   10.0543 C   0  0  0  0  0  0  0  0  0  0  0  0
   19.4184   -8.1824    9.1769 C   0  0  0  0  0  0  0  0  0  0  0  0
   20.4635   -7.6380    9.6219 O   0  0  0  0  0  0  0  0  0  0  0  0
   19.1606   -8.2116    7.8427 N   0  0  0  0  0  0  0  0  0  0  0  0
   19.9467   -7.6871    6.9055 N   0  0  0  0  0  0  0  0  0  0  0  0
   19.4483   -7.8715    5.6575 C   0  0  0  0  0  0  0  0  0  0  0  0
   17.9607   -8.6930    5.6854 S   0  0  0  0  0  0  0  0  0  0  0  0
   18.0441   -8.7955    7.3594 C   0  0  0  0  0  0  0  0  0  0  0  0
   17.1316   -9.3754    8.1767 N   0  0  0  0  0  0  0  0  0  0  0  0
   20.0984   -7.3372    4.4236 C   0  0  0  0  0  0  0  0  0  0  0  0
   21.5573   -7.0286    4.7046 C   0  0  0  0  0  0  0  0  0  0  0  0
   20.5470   -5.9055    4.6528 C   0  0  0  0  0  0  0  0  0  0  0  0
 13 14  1  0  0  0
 14 15  2  0  0  0
 15 16  1  0  0  0
 16 17  2  0  0  0
 17 12  1  0  0  0
 17 18  1  0  0  0
 12 11  1  0  0  0
 11  7  1  0  0  0
  7  8  2  0  0  0
  7  9  1  0  0  0
  9  1  1  0  0  0
  1  2  2  0  0  0
  2  3  1  0  0  0
  3  4  2  0  0  0
  4  5  1  0  0  0
  4 20  1  0  0  0
  5  6  2  0  0  0
  6  1  1  0  0  0
 20 21  2  0  0  0
 20 22  1  0  0  0
 22 23  1  0  0  0
 23 24  1  0  0  0
 24 25  2  0  0  0
 25 26  1  0  0  0
 26 27  2  0  0  0
 26 28  1  0  0  0
 28 29  1  0  0  0
 29 30  2  0  0  0
 30 31  1  0  0  0
 30 34  1  0  0  0
 31 32  1  0  0  0
 32 33  2  0  0  0
 32 28  1  0  0  0
 33 24  1  0  0  0
 34 35  1  0  0  0
 35 36  1  0  0  0
 36 34  1  0  0  0
 18 19  2  0  0  0
 19 14  1  0  0  0
  9 10  1  0  0  0
M  END
>  <minimizedAffinity>
-9.44280

>  <minimizedRMSD>
2.22481

$$$$
ChemDiv-G756-1294 MCULE-7316681870 MolPort-007-879-721 PubChem-46356497 ZINC000033068109 ZINC33068109


 34 37  0  0  0  0  0  0  0  0999 V2000
   17.3601  -10.0464   14.6026 C   0  0  0  0  0  0  0  0  0  0  0  0
   16.8018   -9.1606   15.5312 C   0  0  0  0  0  0  0  0  0  0  0  0
   16.7271   -9.4813   16.8931 C   0  0  0  0  0  0  0  0  0  0  0  0
   17.2154  -10.7126   17.3302 C   0  0  0  0  0  0  0  0  0  0  0  0
   17.7699  -11.6140   16.4209 C   0  0  0  0  0  0  0  0  0  0  0  0
   17.8485  -11.2985   15.0611 C   0  0  0  0  0  0  0  0  0  0  0  0
   18.4366  -12.3293   14.1605 C   0  0  0  0  0  0  0  0  0  0  0  0
   16.1584   -8.5826   17.8551 N   0  0  0  0  0  0  0  0  0  0  0  0
   14.8821   -7.9344   17.7737 C   0  0  0  0  0  0  0  0  0  0  0  0
   14.1478   -8.0789   16.7587 O   0  0  0  0  0  0  0  0  0  0  0  0
   14.4792   -7.0656   18.8371 N   0  0  0  0  0  0  0  0  0  0  0  0
   16.7005   -8.3908   18.6543 H   0  0  0  0  0  0  0  0  0  0  0  0
   15.1689   -6.8010   19.4879 H   0  0  0  0  0  0  0  0  0  0  0  0
   13.1575   -6.5475   19.0358 C   0  0  0  0  0  0  0  0  0  0  0  0
   12.0355   -7.3877   19.1876 C   0  0  0  0  0  0  0  0  0  0  0  0
   12.1630   -8.7373   19.1978 F   0  0  0  0  0  0  0  0  0  0  0  0
   10.7699   -6.8306   19.3981 C   0  0  0  0  0  0  0  0  0  0  0  0
   10.6138   -5.4450   19.4707 C   0  0  0  0  0  0  0  0  0  0  0  0
   11.7268   -4.6105   19.3465 C   0  0  0  0  0  0  0  0  0  0  0  0
   12.9936   -5.1617   19.1376 C   0  0  0  0  0  0  0  0  0  0  0  0
   17.3886   -9.6200   13.2652 O   0  0  0  0  0  0  0  0  0  0  0  0
   18.5594   -9.4557   12.4775 C   0  0  0  0  0  0  0  0  0  0  0  0
   20.0827   -7.0209    5.7293 C   0  0  0  0  0  0  0  0  0  0  0  0
   19.1752   -7.7420    6.6593 C   0  0  0  0  0  0  0  0  0  0  0  0
   19.5188   -7.8796    8.0030 C   0  0  0  0  0  0  0  0  0  0  0  0
   18.6566   -8.5602    8.8661 C   0  0  0  0  0  0  0  0  0  0  0  0
   18.9929   -8.6933   10.1753 N   0  0  0  0  0  0  0  0  0  0  0  0
   18.1823   -9.3488   11.0434 C   0  0  0  0  0  0  0  0  0  0  0  0
   16.9779   -9.8858   10.5994 C   0  0  0  0  0  0  0  0  0  0  0  0
   16.6359   -9.7488    9.2549 C   0  0  0  0  0  0  0  0  0  0  0  0
   15.5452  -10.2371    8.8495 O   0  0  0  0  0  0  0  0  0  0  0  0
   17.4750   -9.0907    8.3958 N   0  0  0  0  0  0  0  0  0  0  0  0
   17.1383   -8.9565    7.0782 C   0  0  0  0  0  0  0  0  0  0  0  0
   17.9795   -8.2826    6.1902 C   0  0  0  0  0  0  0  0  0  0  0  0
 23 24  1  0  0  0
 24 25  2  0  0  0
 25 26  1  0  0  0
 26 27  2  0  0  0
 27 28  1  0  0  0
 28 22  1  0  0  0
 28 29  2  0  0  0
 22 21  1  0  0  0
 21  1  1  0  0  0
  1  2  2  0  0  0
  2  3  1  0  0  0
  3  8  1  0  0  0
  3  4  2  0  0  0
  8  9  1  0  0  0
  9 10  2  0  0  0
  9 11  1  0  0  0
 11 14  1  0  0  0
 14 15  2  0  0  0
 15 16  1  0  0  0
 15 17  1  0  0  0
 17 18  2  0  0  0
 18 19  1  0  0  0
 19 20  2  0  0  0
 20 14  1  0  0  0
  4  5  1  0  0  0
  5  6  2  0  0  0
  6  7  1  0  0  0
  6  1  1  0  0  0
 29 30  1  0  0  0
 30 31  2  0  0  0
 30 32  1  0  0  0
 32 33  1  0  0  0
 32 26  1  0  0  0
 33 34  2  0  0  0
 34 24  1  0  0  0
  8 12  1  0  0  0
 11 13  1  0  0  0
M  END
>  <minimizedAffinity>
-9.43695

>  <minimizedRMSD>
1.80615

$$$$
ChemDiv-G756-2268 MCULE-6870984372 MolPort-007-879-990 PubChem-46356724 ZINC000033068249 ZINC33068249


 33 36  0  0  0  0  0  0  0  0999 V2000
   17.2328  -10.1903   16.5102 C   0  0  0  0  0  0  0  0  0  0  0  0
   17.3621   -9.7221   15.1937 C   0  0  0  0  0  0  0  0  0  0  0  0
   17.8818  -10.5463   14.1906 C   0  0  0  0  0  0  0  0  0  0  0  0
   18.2763  -11.8550   14.5102 C   0  0  0  0  0  0  0  0  0  0  0  0
   18.1498  -12.3276   15.8186 C   0  0  0  0  0  0  0  0  0  0  0  0
   17.6293  -11.4967   16.8142 C   0  0  0  0  0  0  0  0  0  0  0  0
   15.8135   -8.2545   17.4097 C   0  0  0  0  0  0  0  0  0  0  0  0
   15.4115   -7.8858   16.2746 O   0  0  0  0  0  0  0  0  0  0  0  0
   16.7015   -9.3696   17.5587 N   0  0  0  0  0  0  0  0  0  0  0  0
   16.9751   -9.5956   18.4770 H   0  0  0  0  0  0  0  0  0  0  0  0
   15.3238   -7.5427   18.6232 C   0  0  0  0  0  0  0  0  0  0  0  0
   14.1319   -6.8272   18.3197 O   0  0  0  0  0  0  0  0  0  0  0  0
   13.2220   -8.3493   20.6013 F   0  0  0  0  0  0  0  0  0  0  0  0
   12.4083   -8.1168   19.5425 C   0  0  0  0  0  0  0  0  0  0  0  0
   12.8391   -7.3591   18.4300 C   0  0  0  0  0  0  0  0  0  0  0  0
   11.9395   -7.1098   17.3870 C   0  0  0  0  0  0  0  0  0  0  0  0
   10.6375   -7.6141   17.4328 C   0  0  0  0  0  0  0  0  0  0  0  0
   10.2205   -8.3710   18.5290 C   0  0  0  0  0  0  0  0  0  0  0  0
   11.1035   -8.6185   19.5819 C   0  0  0  0  0  0  0  0  0  0  0  0
   17.9945  -10.0425   12.8925 O   0  0  0  0  0  0  0  0  0  0  0  0
   16.9186   -9.3984   12.2227 C   0  0  0  0  0  0  0  0  0  0  0  0
   17.2103   -9.3245   10.7669 C   0  0  0  0  0  0  0  0  0  0  0  0
   16.5112  -10.1324    9.8752 C   0  0  0  0  0  0  0  0  0  0  0  0
   16.7852  -10.0235    8.5128 C   0  0  0  0  0  0  0  0  0  0  0  0
   16.1558  -10.7582    7.7029 O   0  0  0  0  0  0  0  0  0  0  0  0
   17.7230   -9.1294    8.0697 N   0  0  0  0  0  0  0  0  0  0  0  0
   17.9907   -9.0234    6.7339 C   0  0  0  0  0  0  0  0  0  0  0  0
   18.9415   -8.1149    6.2665 C   0  0  0  0  0  0  0  0  0  0  0  0
   19.2741   -7.9900    4.5530 Cl  0  0  0  0  0  0  0  0  0  0  0  0
   19.6230   -7.3081    7.1752 C   0  0  0  0  0  0  0  0  0  0  0  0
   19.3495   -7.4167    8.5373 C   0  0  0  0  0  0  0  0  0  0  0  0
   18.3931   -8.3361    8.9752 C   0  0  0  0  0  0  0  0  0  0  0  0
   18.1282   -8.4398   10.3032 N   0  0  0  0  0  0  0  0  0  0  0  0
 13 14  1  0  0  0
 14 15  2  0  0  0
 15 12  1  0  0  0
 15 16  1  0  0  0
 12 11  1  0  0  0
 11  7  1  0  0  0
  7  8  2  0  0  0
  7  9  1  0  0  0
  9  1  1  0  0  0
  1  2  2  0  0  0
  2  3  1  0  0  0
  3 20  1  0  0  0
  3  4  2  0  0  0
 20 21  1  0  0  0
 21 22  1  0  0  0
 22 23  2  0  0  0
 23 24  1  0  0  0
 24 25  2  0  0  0
 24 26  1  0  0  0
 26 27  1  0  0  0
 27 28  2  0  0  0
 28 29  1  0  0  0
 28 30  1  0  0  0
 30 31  2  0  0  0
 31 32  1  0  0  0
 32 33  2  0  0  0
 32 26  1  0  0  0
 33 22  1  0  0  0
  4  5  1  0  0  0
  5  6  2  0  0  0
  6  1  1  0  0  0
 16 17  2  0  0  0
 17 18  1  0  0  0
 18 19  2  0  0  0
 19 14  1  0  0  0
  9 10  1  0  0  0
M  END
>  <minimizedAffinity>
-9.43092

>  <minimizedRMSD>
1.35221

$$$$
ChemDiv-G756-0350 MCULE-8295477189 MolPort-010-744-625 PubChem-50802178 ZINC000033268540 ZINC33268540


 31 34  0  0  0  0  0  0  0  0999 V2000
   16.7729  -10.0109   16.6767 C   0  0  0  0  0  0  0  0  0  0  0  0
   17.3973  -11.2141   17.0059 C   0  0  0  0  0  0  0  0  0  0  0  0
   18.0605  -11.9544   16.0270 C   0  0  0  0  0  0  0  0  0  0  0  0
   18.1120  -11.5043   14.7041 C   0  0  0  0  0  0  0  0  0  0  0  0
   18.8435  -12.3599   13.7279 C   0  0  0  0  0  0  0  0  0  0  0  0
   17.4828  -10.2800   14.3548 C   0  0  0  0  0  0  0  0  0  0  0  0
   16.8217   -9.5546   15.3528 C   0  0  0  0  0  0  0  0  0  0  0  0
   15.2892   -8.1038   17.5430 C   0  0  0  0  0  0  0  0  0  0  0  0
   15.0715   -7.6309   16.3941 O   0  0  0  0  0  0  0  0  0  0  0  0
   16.1020   -9.2758   17.7092 N   0  0  0  0  0  0  0  0  0  0  0  0
   16.2102   -9.6098   18.6289 H   0  0  0  0  0  0  0  0  0  0  0  0
   11.6686   -5.3536   19.6074 C   0  0  0  0  0  0  0  0  0  0  0  0
   12.9393   -6.1128   19.7353 C   0  0  0  0  0  0  0  0  0  0  0  0
   13.5746   -6.2083   20.9761 C   0  0  0  0  0  0  0  0  0  0  0  0
   14.7696   -6.9228   21.0958 C   0  0  0  0  0  0  0  0  0  0  0  0
   15.3292   -7.5418   19.9741 C   0  0  0  0  0  0  0  0  0  0  0  0
   14.6982   -7.4516   18.7248 C   0  0  0  0  0  0  0  0  0  0  0  0
   13.4992   -6.7314   18.6136 C   0  0  0  0  0  0  0  0  0  0  0  0
   17.4722   -9.7263   13.0645 O   0  0  0  0  0  0  0  0  0  0  0  0
   18.6159   -9.2919   12.3429 C   0  0  0  0  0  0  0  0  0  0  0  0
   18.2882   -9.2057   10.8955 C   0  0  0  0  0  0  0  0  0  0  0  0
   17.1349   -9.8109   10.4051 C   0  0  0  0  0  0  0  0  0  0  0  0
   16.8364   -9.6890    9.0490 C   0  0  0  0  0  0  0  0  0  0  0  0
   15.7933  -10.2401    8.6017 O   0  0  0  0  0  0  0  0  0  0  0  0
   17.6672   -8.9792    8.2236 N   0  0  0  0  0  0  0  0  0  0  0  0
   17.3744   -8.8610    6.8939 C   0  0  0  0  0  0  0  0  0  0  0  0
   18.2088   -8.1384    6.0393 C   0  0  0  0  0  0  0  0  0  0  0  0
   19.3527   -7.5319    6.5540 C   0  0  0  0  0  0  0  0  0  0  0  0
   19.6515   -7.6530    7.9099 C   0  0  0  0  0  0  0  0  0  0  0  0
   18.7976   -8.3837    8.7389 C   0  0  0  0  0  0  0  0  0  0  0  0
   19.0906   -8.5000   10.0599 N   0  0  0  0  0  0  0  0  0  0  0  0
 12 13  1  0  0  0
 13 14  2  0  0  0
 14 15  1  0  0  0
 15 16  2  0  0  0
 16 17  1  0  0  0
 17 18  2  0  0  0
 17  8  1  0  0  0
 18 13  1  0  0  0
  8  9  2  0  0  0
  8 10  1  0  0  0
 10  1  1  0  0  0
  1  2  2  0  0  0
  2  3  1  0  0  0
  3  4  2  0  0  0
  4  5  1  0  0  0
  4  6  1  0  0  0
  6 19  1  0  0  0
  6  7  2  0  0  0
 19 20  1  0  0  0
 20 21  1  0  0  0
 21 22  2  0  0  0
 22 23  1  0  0  0
 23 24  2  0  0  0
 23 25  1  0  0  0
 25 26  1  0  0  0
 26 27  2  0  0  0
 27 28  1  0  0  0
 28 29  2  0  0  0
 29 30  1  0  0  0
 30 31  2  0  0  0
 30 25  1  0  0  0
 31 21  1  0  0  0
  7  1  1  0  0  0
 10 11  1  0  0  0
M  END
>  <minimizedAffinity>
-9.42630

>  <minimizedRMSD>
1.12244

$$$$
ChemDiv-G756-1044 MCULE-9407615820 MolPort-007-879-555 PubChem-46356364 ZINC000021100177 ZINC21100177


 34 37  0  0  0  0  0  0  0  0999 V2000
   17.6212  -10.1990   15.5507 C   0  0  0  0  0  0  0  0  0  0  0  0
   17.4529   -9.5827   14.3012 C   0  0  0  0  0  0  0  0  0  0  0  0
   17.7836  -10.2568   13.1216 C   0  0  0  0  0  0  0  0  0  0  0  0
   18.2890  -11.5640   13.1944 C   0  0  0  0  0  0  0  0  0  0  0  0
   18.4602  -12.1835   14.4346 C   0  0  0  0  0  0  0  0  0  0  0  0
   18.1276  -11.5017   15.6078 C   0  0  0  0  0  0  0  0  0  0  0  0
   15.9309   -8.2252   18.3652 N   0  0  0  0  0  0  0  0  0  0  0  0
   16.0720   -8.8415   17.0787 C   0  0  0  0  0  0  0  0  0  0  0  0
   15.1426   -8.7769   16.2298 O   0  0  0  0  0  0  0  0  0  0  0  0
   17.2911   -9.5326   16.7770 N   0  0  0  0  0  0  0  0  0  0  0  0
   16.7062   -8.2841   18.9691 H   0  0  0  0  0  0  0  0  0  0  0  0
   17.9735   -9.5519   17.4863 H   0  0  0  0  0  0  0  0  0  0  0  0
   12.5519   -6.1850   19.9203 C   0  0  0  0  0  0  0  0  0  0  0  0
   13.6013   -6.5718   20.7591 C   0  0  0  0  0  0  0  0  0  0  0  0
   14.7103   -7.2409   20.2323 C   0  0  0  0  0  0  0  0  0  0  0  0
   14.7792   -7.5318   18.8655 C   0  0  0  0  0  0  0  0  0  0  0  0
   13.7198   -7.1493   18.0284 C   0  0  0  0  0  0  0  0  0  0  0  0
   12.6101   -6.4810   18.5531 C   0  0  0  0  0  0  0  0  0  0  0  0
   10.8328   -4.4489   19.5286 C   0  0  0  0  0  0  0  0  0  0  0  0
   11.3655   -5.4896   20.4963 C   0  0  0  0  0  0  0  0  0  0  0  0
   17.6026   -9.6068   11.8983 O   0  0  0  0  0  0  0  0  0  0  0  0
   18.5893   -8.7592   11.3255 C   0  0  0  0  0  0  0  0  0  0  0  0
   18.4689   -8.7856    9.8440 C   0  0  0  0  0  0  0  0  0  0  0  0
   17.4527   -9.5209    9.2411 C   0  0  0  0  0  0  0  0  0  0  0  0
   17.3452   -9.5049    7.8513 C   0  0  0  0  0  0  0  0  0  0  0  0
   16.4264  -10.1731    7.3025 O   0  0  0  0  0  0  0  0  0  0  0  0
   18.2259   -8.7713    7.1022 N   0  0  0  0  0  0  0  0  0  0  0  0
   18.1196   -8.7566    5.7399 C   0  0  0  0  0  0  0  0  0  0  0  0
   19.0082   -8.0130    4.9613 C   0  0  0  0  0  0  0  0  0  0  0  0
   20.0132   -7.2783    5.5869 C   0  0  0  0  0  0  0  0  0  0  0  0
   20.9689   -6.4817    4.7742 C   0  0  0  0  0  0  0  0  0  0  0  0
   20.1211   -7.2926    6.9762 C   0  0  0  0  0  0  0  0  0  0  0  0
   19.2172   -8.0472    7.7274 C   0  0  0  0  0  0  0  0  0  0  0  0
   19.3241   -8.0598    9.0810 N   0  0  0  0  0  0  0  0  0  0  0  0
 19 20  1  0  0  0
 20 13  1  0  0  0
 13 14  2  0  0  0
 14 15  1  0  0  0
 15 16  2  0  0  0
 16  7  1  0  0  0
  7  8  1  0  0  0
  8  9  2  0  0  0
  8 10  1  0  0  0
 10  1  1  0  0  0
  1  2  2  0  0  0
  2  3  1  0  0  0
  3 21  1  0  0  0
 21 22  1  0  0  0
 22 23  1  0  0  0
 23 24  2  0  0  0
 24 25  1  0  0  0
 25 26  2  0  0  0
 25 27  1  0  0  0
 27 28  1  0  0  0
 28 29  2  0  0  0
 29 30  1  0  0  0
 30 31  1  0  0  0
 30 32  2  0  0  0
 32 33  1  0  0  0
 33 34  2  0  0  0
  3  4  2  0  0  0
  4  5  1  0  0  0
  5  6  2  0  0  0
 16 17  1  0  0  0
 17 18  2  0  0  0
 18 13  1  0  0  0
  6  1  1  0  0  0
 34 23  1  0  0  0
 33 27  1  0  0  0
  7 11  1  0  0  0
 10 12  1  0  0  0
M  END
>  <minimizedAffinity>
-9.42600

>  <minimizedRMSD>
2.36999

$$$$
ChemDiv-G357-3016 MCULE-1160103635 MolPort-007-847-898 PubChem-20953168 ZINC000015772174 ZINC15772174


 33 36  0  0  0  0  0  0  0  0999 V2000
   17.3675  -10.2375   14.7410 C   0  0  0  0  0  0  0  0  0  0  0  0
   16.7369   -9.0045   14.5310 C   0  0  0  0  0  0  0  0  0  0  0  0
   16.2229   -8.2823   15.6113 C   0  0  0  0  0  0  0  0  0  0  0  0
   16.3328   -8.7838   16.9168 C   0  0  0  0  0  0  0  0  0  0  0  0
   16.9623  -10.0151   17.1252 C   0  0  0  0  0  0  0  0  0  0  0  0
   17.4770  -10.7387   16.0456 C   0  0  0  0  0  0  0  0  0  0  0  0
   15.8166   -8.0720   18.0497 N   0  0  0  0  0  0  0  0  0  0  0  0
   14.4901   -7.5514   18.2034 C   0  0  0  0  0  0  0  0  0  0  0  0
   13.6313   -7.6663   17.2893 O   0  0  0  0  0  0  0  0  0  0  0  0
   16.4377   -7.9259   18.7995 H   0  0  0  0  0  0  0  0  0  0  0  0
   14.1338   -6.8264   19.4510 C   0  0  0  0  0  0  0  0  0  0  0  0
   14.5942   -7.5619   20.5769 O   0  0  0  0  0  0  0  0  0  0  0  0
   14.5309   -7.0638   21.8808 C   0  0  0  0  0  0  0  0  0  0  0  0
   13.7304   -5.9567   22.2088 C   0  0  0  0  0  0  0  0  0  0  0  0
   13.6880   -5.4828   23.5233 C   0  0  0  0  0  0  0  0  0  0  0  0
   14.4444   -6.1106   24.5169 C   0  0  0  0  0  0  0  0  0  0  0  0
   15.2431   -7.2119   24.1960 C   0  0  0  0  0  0  0  0  0  0  0  0
   15.2852   -7.6863   22.8814 C   0  0  0  0  0  0  0  0  0  0  0  0
   17.9071  -10.9945   13.6000 C   0  0  0  0  0  0  0  0  0  0  0  0
   18.1555  -12.2264   13.7191 O   0  0  0  0  0  0  0  0  0  0  0  0
   18.1418  -10.3432   12.3870 O   0  0  0  0  0  0  0  0  0  0  0  0
   17.1937   -9.4535   11.8162 C   0  0  0  0  0  0  0  0  0  0  0  0
   20.1172   -6.9860    5.5942 C   0  0  0  0  0  0  0  0  0  0  0  0
   19.3907   -7.6230    6.7236 C   0  0  0  0  0  0  0  0  0  0  0  0
   19.6234   -7.3612    8.0783 C   0  0  0  0  0  0  0  0  0  0  0  0
   18.6979   -8.2017    8.6670 C   0  0  0  0  0  0  0  0  0  0  0  0
   18.4588   -8.3765    9.9898 N   0  0  0  0  0  0  0  0  0  0  0  0
   17.4940   -9.2658   10.3722 C   0  0  0  0  0  0  0  0  0  0  0  0
   16.7512   -9.9763    9.4068 C   0  0  0  0  0  0  0  0  0  0  0  0
   17.0348   -9.7611    8.0526 C   0  0  0  0  0  0  0  0  0  0  0  0
   16.4022  -10.3745    7.1533 O   0  0  0  0  0  0  0  0  0  0  0  0
   18.0084   -8.8729    7.7402 N   0  0  0  0  0  0  0  0  0  0  0  0
   18.4334   -8.5170    6.5713 O   0  0  0  0  0  0  0  0  0  0  0  0
 23 24  1  0  0  0
 24 25  2  0  0  0
 25 26  1  0  0  0
 26 27  2  0  0  0
 27 28  1  0  0  0
 28 22  1  0  0  0
 28 29  2  0  0  0
 22 21  1  0  0  0
 21 19  1  0  0  0
 19 20  2  0  0  0
 19  1  1  0  0  0
  1  2  2  0  0  0
  2  3  1  0  0  0
  3  4  2  0  0  0
  4  7  1  0  0  0
  4  5  1  0  0  0
  7  8  1  0  0  0
  8  9  2  0  0  0
  8 11  1  0  0  0
 11 12  1  0  0  0
 12 13  1  0  0  0
 13 14  2  0  0  0
 14 15  1  0  0  0
 15 16  2  0  0  0
 16 17  1  0  0  0
 17 18  2  0  0  0
 18 13  1  0  0  0
  5  6  2  0  0  0
  6  1  1  0  0  0
 29 30  1  0  0  0
 30 31  2  0  0  0
 30 32  1  0  0  0
 32 33  1  0  0  0
 32 26  1  0  0  0
 33 24  1  0  0  0
  7 10  1  0  0  0
M  END
>  <minimizedAffinity>
-9.42301

>  <minimizedRMSD>
1.34048

$$$$
ChemDiv-G756-0404 MCULE-5704538691 MolPort-007-879-134 PubChem-46356001 ZINC000021156706 ZINC21156706


 34 37  0  0  0  0  0  0  0  0999 V2000
   17.3683   -9.6411   16.5460 C   0  0  0  0  0  0  0  0  0  0  0  0
   17.8011  -10.9220   16.8893 C   0  0  0  0  0  0  0  0  0  0  0  0
   18.2405  -11.8052   15.9030 C   0  0  0  0  0  0  0  0  0  0  0  0
   18.2549  -11.4233   14.5580 C   0  0  0  0  0  0  0  0  0  0  0  0
   18.7406  -12.4323   13.5752 C   0  0  0  0  0  0  0  0  0  0  0  0
   17.8180  -10.1221   14.1935 C   0  0  0  0  0  0  0  0  0  0  0  0
   17.3814   -9.2527   15.1999 C   0  0  0  0  0  0  0  0  0  0  0  0
   15.3291   -7.4581   18.9435 N   0  0  0  0  0  0  0  0  0  0  0  0
   15.5748   -8.3571   17.8546 C   0  0  0  0  0  0  0  0  0  0  0  0
   14.6236   -8.7848   17.1467 O   0  0  0  0  0  0  0  0  0  0  0  0
   16.9239   -8.7603   17.5871 N   0  0  0  0  0  0  0  0  0  0  0  0
   16.1163   -7.1581   19.4529 H   0  0  0  0  0  0  0  0  0  0  0  0
   17.6188   -8.3942   18.1806 H   0  0  0  0  0  0  0  0  0  0  0  0
   12.6968   -4.9856   22.3072 C   0  0  0  0  0  0  0  0  0  0  0  0
   12.7630   -5.7331   21.0248 C   0  0  0  0  0  0  0  0  0  0  0  0
   13.9846   -6.2441   20.5758 C   0  0  0  0  0  0  0  0  0  0  0  0
   14.0576   -6.9495   19.3692 C   0  0  0  0  0  0  0  0  0  0  0  0
   12.8896   -7.1388   18.6140 C   0  0  0  0  0  0  0  0  0  0  0  0
   11.6677   -6.6288   19.0617 C   0  0  0  0  0  0  0  0  0  0  0  0
   10.4367   -6.8347   18.2555 C   0  0  0  0  0  0  0  0  0  0  0  0
   11.6044   -5.9257   20.2676 C   0  0  0  0  0  0  0  0  0  0  0  0
   17.7885   -9.6276   12.8797 O   0  0  0  0  0  0  0  0  0  0  0  0
   16.6308   -9.5216   12.0636 C   0  0  0  0  0  0  0  0  0  0  0  0
   17.0352   -9.3772   10.6406 C   0  0  0  0  0  0  0  0  0  0  0  0
   16.3943  -10.1230    9.6558 C   0  0  0  0  0  0  0  0  0  0  0  0
   16.7759   -9.9494    8.3263 C   0  0  0  0  0  0  0  0  0  0  0  0
   16.1994  -10.6279    7.4324 O   0  0  0  0  0  0  0  0  0  0  0  0
   17.7605   -9.0536    8.0051 N   0  0  0  0  0  0  0  0  0  0  0  0
   18.1335   -8.8840    6.7015 C   0  0  0  0  0  0  0  0  0  0  0  0
   19.1333   -7.9728    6.3564 C   0  0  0  0  0  0  0  0  0  0  0  0
   19.7546   -7.2294    7.3578 C   0  0  0  0  0  0  0  0  0  0  0  0
   19.3738   -7.4023    8.6873 C   0  0  0  0  0  0  0  0  0  0  0  0
   18.3709   -8.3225    9.0006 C   0  0  0  0  0  0  0  0  0  0  0  0
   18.0016   -8.4894   10.2968 N   0  0  0  0  0  0  0  0  0  0  0  0
 14 15  1  0  0  0
 15 16  2  0  0  0
 16 17  1  0  0  0
 17  8  1  0  0  0
 17 18  2  0  0  0
  8  9  1  0  0  0
  9 10  2  0  0  0
  9 11  1  0  0  0
 11  1  1  0  0  0
  1  2  2  0  0  0
  2  3  1  0  0  0
  3  4  2  0  0  0
  4  5  1  0  0  0
  4  6  1  0  0  0
  6 22  1  0  0  0
  6  7  2  0  0  0
 22 23  1  0  0  0
 23 24  1  0  0  0
 24 25  2  0  0  0
 25 26  1  0  0  0
 26 27  2  0  0  0
 26 28  1  0  0  0
 28 29  1  0  0  0
 29 30  2  0  0  0
 30 31  1  0  0  0
 31 32  2  0  0  0
 32 33  1  0  0  0
 33 34  2  0  0  0
 33 28  1  0  0  0
 34 24  1  0  0  0
  7  1  1  0  0  0
 18 19  1  0  0  0
 19 20  1  0  0  0
 19 21  2  0  0  0
 21 15  1  0  0  0
  8 12  1  0  0  0
 11 13  1  0  0  0
M  END
>  <minimizedAffinity>
-9.41750

>  <minimizedRMSD>
2.06520

$$$$
ChemDiv-G756-0401 MCULE-5166969410 MolPort-007-879-131 PubChem-46355998 ZINC000033067810 ZINC33067810


 33 36  0  0  0  0  0  0  0  0999 V2000
   18.2526  -12.6586   14.4600 C   0  0  0  0  0  0  0  0  0  0  0  0
   17.7636  -11.5016   15.2614 C   0  0  0  0  0  0  0  0  0  0  0  0
   17.7143  -11.6685   16.6488 C   0  0  0  0  0  0  0  0  0  0  0  0
   17.2647  -10.6379   17.4742 C   0  0  0  0  0  0  0  0  0  0  0  0
   16.8547   -9.4229   16.9247 C   0  0  0  0  0  0  0  0  0  0  0  0
   16.9027   -9.2495   15.5352 C   0  0  0  0  0  0  0  0  0  0  0  0
   17.3521  -10.2691   14.6879 C   0  0  0  0  0  0  0  0  0  0  0  0
   16.4005   -8.3857   17.8052 N   0  0  0  0  0  0  0  0  0  0  0  0
   15.0423   -8.0003   18.0524 C   0  0  0  0  0  0  0  0  0  0  0  0
   14.0900   -8.6042   17.4894 O   0  0  0  0  0  0  0  0  0  0  0  0
   14.7893   -6.9142   18.9529 N   0  0  0  0  0  0  0  0  0  0  0  0
   17.0953   -7.8855   18.2913 H   0  0  0  0  0  0  0  0  0  0  0  0
   15.5792   -6.4726   19.3406 H   0  0  0  0  0  0  0  0  0  0  0  0
   13.5079   -6.3998   19.3515 C   0  0  0  0  0  0  0  0  0  0  0  0
   13.2350   -6.1952   20.7172 C   0  0  0  0  0  0  0  0  0  0  0  0
   14.2553   -6.4996   21.7605 C   0  0  0  0  0  0  0  0  0  0  0  0
   11.9908   -5.6968   21.1174 C   0  0  0  0  0  0  0  0  0  0  0  0
   11.0119   -5.3999   20.1667 C   0  0  0  0  0  0  0  0  0  0  0  0
   11.2739   -5.6012   18.8104 C   0  0  0  0  0  0  0  0  0  0  0  0
   12.5150   -6.0985   18.4056 C   0  0  0  0  0  0  0  0  0  0  0  0
   17.3598   -9.9858   13.3125 O   0  0  0  0  0  0  0  0  0  0  0  0
   18.5181   -9.9004   12.4947 C   0  0  0  0  0  0  0  0  0  0  0  0
   18.1236   -9.5582   11.1031 C   0  0  0  0  0  0  0  0  0  0  0  0
   16.9175  -10.0229   10.5875 C   0  0  0  0  0  0  0  0  0  0  0  0
   16.5624   -9.6702    9.2864 C   0  0  0  0  0  0  0  0  0  0  0  0
   15.4718  -10.0949    8.8150 O   0  0  0  0  0  0  0  0  0  0  0  0
   17.3903   -8.8754    8.5395 N   0  0  0  0  0  0  0  0  0  0  0  0
   17.0418   -8.5318    7.2634 C   0  0  0  0  0  0  0  0  0  0  0  0
   17.8724   -7.7194    6.4896 C   0  0  0  0  0  0  0  0  0  0  0  0
   19.0699   -7.2554    7.0304 C   0  0  0  0  0  0  0  0  0  0  0  0
   19.4250   -7.6059    8.3318 C   0  0  0  0  0  0  0  0  0  0  0  0
   18.5731   -8.4213    9.0804 C   0  0  0  0  0  0  0  0  0  0  0  0
   18.9222   -8.7634   10.3475 N   0  0  0  0  0  0  0  0  0  0  0  0
  1  2  1  0  0  0
  2  3  2  0  0  0
  3  4  1  0  0  0
  4  5  2  0  0  0
  5  8  1  0  0  0
  5  6  1  0  0  0
  8  9  1  0  0  0
  9 10  2  0  0  0
  9 11  1  0  0  0
 11 14  1  0  0  0
 14 15  2  0  0  0
 15 16  1  0  0  0
 15 17  1  0  0  0
 17 18  2  0  0  0
 18 19  1  0  0  0
 19 20  2  0  0  0
 20 14  1  0  0  0
  6  7  2  0  0  0
  7 21  1  0  0  0
  7  2  1  0  0  0
 21 22  1  0  0  0
 22 23  1  0  0  0
 23 24  2  0  0  0
 24 25  1  0  0  0
 25 26  2  0  0  0
 25 27  1  0  0  0
 27 28  1  0  0  0
 28 29  2  0  0  0
 29 30  1  0  0  0
 30 31  2  0  0  0
 31 32  1  0  0  0
 32 33  2  0  0  0
 32 27  1  0  0  0
 33 23  1  0  0  0
  8 12  1  0  0  0
 11 13  1  0  0  0
M  END
>  <minimizedAffinity>
-9.41714

>  <minimizedRMSD>
1.60318

$$$$
ChemDiv-G756-1500 MCULE-4176676915 MolPort-007-879-869 PubChem-46356613 ZINC000033068169 ZINC33068169


 36 39  0  0  0  0  0  0  0  0999 V2000
   17.7203  -10.1934   15.9960 C   0  0  0  0  0  0  0  0  0  0  0  0
   17.7923   -9.7575   14.6645 C   0  0  0  0  0  0  0  0  0  0  0  0
   18.0964  -10.6587   13.6317 C   0  0  0  0  0  0  0  0  0  0  0  0
   18.3284  -12.0023   13.9401 C   0  0  0  0  0  0  0  0  0  0  0  0
   18.2583  -12.4435   15.2641 C   0  0  0  0  0  0  0  0  0  0  0  0
   17.9552  -11.5410   16.2872 C   0  0  0  0  0  0  0  0  0  0  0  0
   16.0090   -7.9109   18.5519 N   0  0  0  0  0  0  0  0  0  0  0  0
   16.1162   -8.8048   17.4367 C   0  0  0  0  0  0  0  0  0  0  0  0
   15.0918   -9.1505   16.7887 O   0  0  0  0  0  0  0  0  0  0  0  0
   17.4120   -9.2977   17.0729 N   0  0  0  0  0  0  0  0  0  0  0  0
   16.8481   -7.6821   19.0133 H   0  0  0  0  0  0  0  0  0  0  0  0
   18.1702   -8.9889   17.6198 H   0  0  0  0  0  0  0  0  0  0  0  0
   12.4791   -6.1388   20.1256 C   0  0  0  0  0  0  0  0  0  0  0  0
   13.5727   -6.4059   20.9525 C   0  0  0  0  0  0  0  0  0  0  0  0
   14.7405   -6.9914   20.4352 C   0  0  0  0  0  0  0  0  0  0  0  0
   14.8100   -7.3127   19.0692 C   0  0  0  0  0  0  0  0  0  0  0  0
   13.7099   -7.0432   18.2415 C   0  0  0  0  0  0  0  0  0  0  0  0
   12.5533   -6.4612   18.7634 C   0  0  0  0  0  0  0  0  0  0  0  0
   10.3038   -4.9852   19.8888 C   0  0  0  0  0  0  0  0  0  0  0  0
   11.3368   -5.5556   20.6807 O   0  0  0  0  0  0  0  0  0  0  0  0
   15.8390   -7.2611   21.2595 O   0  0  0  0  0  0  0  0  0  0  0  0
   16.1662   -6.4659   22.3911 C   0  0  0  0  0  0  0  0  0  0  0  0
   18.1734  -10.2463   12.2990 O   0  0  0  0  0  0  0  0  0  0  0  0
   17.3918   -9.1777   11.7808 C   0  0  0  0  0  0  0  0  0  0  0  0
   17.5576   -9.1083   10.3051 C   0  0  0  0  0  0  0  0  0  0  0  0
   16.7828   -9.9169    9.4789 C   0  0  0  0  0  0  0  0  0  0  0  0
   16.9770   -9.8509    8.1001 C   0  0  0  0  0  0  0  0  0  0  0  0
   16.2725  -10.5799    7.3489 O   0  0  0  0  0  0  0  0  0  0  0  0
   17.9207   -9.0066    7.5786 N   0  0  0  0  0  0  0  0  0  0  0  0
   18.1102   -8.9429    6.2267 C   0  0  0  0  0  0  0  0  0  0  0  0
   19.0699   -8.0896    5.6801 C   0  0  0  0  0  0  0  0  0  0  0  0
   19.2667   -8.0291    4.2085 C   0  0  0  0  0  0  0  0  0  0  0  0
   19.8420   -7.2958    6.5255 C   0  0  0  0  0  0  0  0  0  0  0  0
   19.6482   -7.3613    7.9041 C   0  0  0  0  0  0  0  0  0  0  0  0
   18.6792   -8.2245    8.4218 C   0  0  0  0  0  0  0  0  0  0  0  0
   18.4924   -8.2865    9.7655 N   0  0  0  0  0  0  0  0  0  0  0  0
 19 20  1  0  0  0
 20 13  1  0  0  0
 13 14  2  0  0  0
 14 15  1  0  0  0
 15 21  1  0  0  0
 21 22  1  0  0  0
 15 16  2  0  0  0
 16  7  1  0  0  0
  7  8  1  0  0  0
  8  9  2  0  0  0
  8 10  1  0  0  0
 10  1  1  0  0  0
  1  2  2  0  0  0
  2  3  1  0  0  0
  3 23  1  0  0  0
 23 24  1  0  0  0
 24 25  1  0  0  0
 25 26  2  0  0  0
 26 27  1  0  0  0
 27 28  2  0  0  0
 27 29  1  0  0  0
 29 30  1  0  0  0
 30 31  2  0  0  0
 31 32  1  0  0  0
 31 33  1  0  0  0
 33 34  2  0  0  0
 34 35  1  0  0  0
 35 36  2  0  0  0
  3  4  2  0  0  0
  4  5  1  0  0  0
  5  6  2  0  0  0
 16 17  1  0  0  0
 17 18  2  0  0  0
 18 13  1  0  0  0
  6  1  1  0  0  0
 36 25  1  0  0  0
 35 29  1  0  0  0
  7 11  1  0  0  0
 10 12  1  0  0  0
M  END
>  <minimizedAffinity>
-9.41459

>  <minimizedRMSD>
1.49508

$$$$
ChemDiv-G756-0982 MCULE-1831275209 MolPort-010-744-686 PubChem-50802614 ZINC000033268605 ZINC33268605


 31 34  0  0  0  0  0  0  0  0999 V2000
   17.4565  -10.2795   14.4241 C   0  0  0  0  0  0  0  0  0  0  0  0
   18.1744  -11.4276   14.7942 C   0  0  0  0  0  0  0  0  0  0  0  0
   18.2009  -11.8409   16.1283 C   0  0  0  0  0  0  0  0  0  0  0  0
   17.5106  -11.1110   17.0991 C   0  0  0  0  0  0  0  0  0  0  0  0
   16.7890   -9.9663   16.7444 C   0  0  0  0  0  0  0  0  0  0  0  0
   16.7680   -9.5560   15.4027 C   0  0  0  0  0  0  0  0  0  0  0  0
   16.0939   -9.2444   17.7699 N   0  0  0  0  0  0  0  0  0  0  0  0
   15.2819   -8.0724   17.5989 C   0  0  0  0  0  0  0  0  0  0  0  0
   15.0896   -7.5869   16.4510 O   0  0  0  0  0  0  0  0  0  0  0  0
   16.1827   -9.5884   18.6881 H   0  0  0  0  0  0  0  0  0  0  0  0
   14.6622   -7.4359   18.7746 C   0  0  0  0  0  0  0  0  0  0  0  0
   15.2823   -7.5113   20.0301 C   0  0  0  0  0  0  0  0  0  0  0  0
   14.6962   -6.9075   21.1460 C   0  0  0  0  0  0  0  0  0  0  0  0
   15.5494   -7.0165   22.8457 Br  0  0  0  0  0  0  0  0  0  0  0  0
   13.4842   -6.2239   21.0153 C   0  0  0  0  0  0  0  0  0  0  0  0
   12.8587   -6.1442   19.7683 C   0  0  0  0  0  0  0  0  0  0  0  0
   13.4456   -6.7476   18.6520 C   0  0  0  0  0  0  0  0  0  0  0  0
   17.4115   -9.8375   13.0995 O   0  0  0  0  0  0  0  0  0  0  0  0
   18.5810   -9.5208   12.3558 C   0  0  0  0  0  0  0  0  0  0  0  0
   20.2614   -6.9488    5.6976 C   0  0  0  0  0  0  0  0  0  0  0  0
   19.3310   -7.6857    6.5920 C   0  0  0  0  0  0  0  0  0  0  0  0
   19.6462   -7.8581    7.9384 C   0  0  0  0  0  0  0  0  0  0  0  0
   18.7614   -8.5511    8.7680 C   0  0  0  0  0  0  0  0  0  0  0  0
   19.0687   -8.7144   10.0806 N   0  0  0  0  0  0  0  0  0  0  0  0
   18.2344   -9.3809   10.9170 C   0  0  0  0  0  0  0  0  0  0  0  0
   17.0339   -9.8952   10.4368 C   0  0  0  0  0  0  0  0  0  0  0  0
   16.7217   -9.7262    9.0889 C   0  0  0  0  0  0  0  0  0  0  0  0
   15.6353  -10.1945    8.6506 O   0  0  0  0  0  0  0  0  0  0  0  0
   17.5850   -9.0587    8.2619 N   0  0  0  0  0  0  0  0  0  0  0  0
   17.2765   -8.8909    6.9413 C   0  0  0  0  0  0  0  0  0  0  0  0
   18.1408   -8.2049    6.0864 C   0  0  0  0  0  0  0  0  0  0  0  0
 20 21  1  0  0  0
 21 22  2  0  0  0
 22 23  1  0  0  0
 23 24  2  0  0  0
 24 25  1  0  0  0
 25 19  1  0  0  0
 25 26  2  0  0  0
 19 18  1  0  0  0
 18  1  1  0  0  0
  1  2  2  0  0  0
  2  3  1  0  0  0
  3  4  2  0  0  0
  4  5  1  0  0  0
  5  7  1  0  0  0
  5  6  2  0  0  0
  7  8  1  0  0  0
  8  9  2  0  0  0
  8 11  1  0  0  0
 11 12  2  0  0  0
 12 13  1  0  0  0
 13 14  1  0  0  0
 13 15  2  0  0  0
 15 16  1  0  0  0
 16 17  2  0  0  0
 17 11  1  0  0  0
  6  1  1  0  0  0
 26 27  1  0  0  0
 27 28  2  0  0  0
 27 29  1  0  0  0
 29 30  1  0  0  0
 29 23  1  0  0  0
 30 31  2  0  0  0
 31 21  1  0  0  0
  7 10  1  0  0  0
M  END
>  <minimizedAffinity>
-9.41188

>  <minimizedRMSD>
0.90994

$$$$
ChemDiv-G756-1020 MCULE-6777496646 MolPort-007-879-548 PubChem-46356357 ZINC000033068015 ZINC33068015


 31 34  0  0  0  0  0  0  0  0999 V2000
   17.4500  -10.3129   14.3756 C   0  0  0  0  0  0  0  0  0  0  0  0
   18.1610  -11.4681   14.7371 C   0  0  0  0  0  0  0  0  0  0  0  0
   18.1940  -11.8849   16.0699 C   0  0  0  0  0  0  0  0  0  0  0  0
   17.5170  -11.1517   17.0479 C   0  0  0  0  0  0  0  0  0  0  0  0
   16.8033   -9.9997   16.7021 C   0  0  0  0  0  0  0  0  0  0  0  0
   16.7758   -9.5857   15.3615 C   0  0  0  0  0  0  0  0  0  0  0  0
   16.1242   -9.2734   17.7353 N   0  0  0  0  0  0  0  0  0  0  0  0
   15.3093   -8.1022   17.5727 C   0  0  0  0  0  0  0  0  0  0  0  0
   15.1114   -7.6116   16.4276 O   0  0  0  0  0  0  0  0  0  0  0  0
   16.2275   -9.6137   18.6533 H   0  0  0  0  0  0  0  0  0  0  0  0
   14.6973   -7.4693   18.7545 C   0  0  0  0  0  0  0  0  0  0  0  0
   15.3169   -7.5640   20.0092 C   0  0  0  0  0  0  0  0  0  0  0  0
   14.7390   -6.9618   21.1307 C   0  0  0  0  0  0  0  0  0  0  0  0
   15.5215   -7.0872   22.6912 Cl  0  0  0  0  0  0  0  0  0  0  0  0
   13.5367   -6.2608   21.0063 C   0  0  0  0  0  0  0  0  0  0  0  0
   12.9122   -6.1616   19.7602 C   0  0  0  0  0  0  0  0  0  0  0  0
   13.4905   -6.7636   18.6383 C   0  0  0  0  0  0  0  0  0  0  0  0
   17.3984   -9.8672   13.0524 O   0  0  0  0  0  0  0  0  0  0  0  0
   18.5577   -9.4751   12.3290 C   0  0  0  0  0  0  0  0  0  0  0  0
   20.2946   -6.9506    5.6665 C   0  0  0  0  0  0  0  0  0  0  0  0
   19.3576   -7.6832    6.5576 C   0  0  0  0  0  0  0  0  0  0  0  0
   19.6589   -7.8407    7.9092 C   0  0  0  0  0  0  0  0  0  0  0  0
   18.7687   -8.5308    8.7355 C   0  0  0  0  0  0  0  0  0  0  0  0
   19.0635   -8.6825   10.0525 N   0  0  0  0  0  0  0  0  0  0  0  0
   18.2253   -9.3489   10.8853 C   0  0  0  0  0  0  0  0  0  0  0  0
   17.0345   -9.8773   10.3962 C   0  0  0  0  0  0  0  0  0  0  0  0
   16.7349   -9.7200    9.0439 C   0  0  0  0  0  0  0  0  0  0  0  0
   15.6579  -10.2025    8.5974 O   0  0  0  0  0  0  0  0  0  0  0  0
   17.6011   -9.0505    8.2212 N   0  0  0  0  0  0  0  0  0  0  0  0
   17.3060   -8.8966    6.8957 C   0  0  0  0  0  0  0  0  0  0  0  0
   18.1756   -8.2126    6.0440 C   0  0  0  0  0  0  0  0  0  0  0  0
 20 21  1  0  0  0
 21 22  2  0  0  0
 22 23  1  0  0  0
 23 24  2  0  0  0
 24 25  1  0  0  0
 25 19  1  0  0  0
 25 26  2  0  0  0
 19 18  1  0  0  0
 18  1  1  0  0  0
  1  2  2  0  0  0
  2  3  1  0  0  0
  3  4  2  0  0  0
  4  5  1  0  0  0
  5  7  1  0  0  0
  5  6  2  0  0  0
  7  8  1  0  0  0
  8  9  2  0  0  0
  8 11  1  0  0  0
 11 12  2  0  0  0
 12 13  1  0  0  0
 13 14  1  0  0  0
 13 15  2  0  0  0
 15 16  1  0  0  0
 16 17  2  0  0  0
 17 11  1  0  0  0
  6  1  1  0  0  0
 26 27  1  0  0  0
 27 28  2  0  0  0
 27 29  1  0  0  0
 29 30  1  0  0  0
 29 23  1  0  0  0
 30 31  2  0  0  0
 31 21  1  0  0  0
  7 10  1  0  0  0
M  END
>  <minimizedAffinity>
-9.41024

>  <minimizedRMSD>
0.91640

$$$$
ChemDiv-G756-0434 MCULE-2483729559 MolPort-007-879-160 PubChem-46356027 ZINC000033067818 ZINC33067818


 33 36  0  0  0  0  0  0  0  0999 V2000
   18.3900  -12.3665   14.4395 C   0  0  0  0  0  0  0  0  0  0  0  0
   17.7851  -11.3009   15.2872 C   0  0  0  0  0  0  0  0  0  0  0  0
   17.6732  -11.5672   16.6553 C   0  0  0  0  0  0  0  0  0  0  0  0
   17.1186  -10.6244   17.5213 C   0  0  0  0  0  0  0  0  0  0  0  0
   16.6670   -9.3985   17.0322 C   0  0  0  0  0  0  0  0  0  0  0  0
   16.7754   -9.1268   15.6622 C   0  0  0  0  0  0  0  0  0  0  0  0
   17.3286  -10.0574   14.7749 C   0  0  0  0  0  0  0  0  0  0  0  0
   16.0999   -8.4550   17.9516 N   0  0  0  0  0  0  0  0  0  0  0  0
   14.8099   -7.8371   17.8608 C   0  0  0  0  0  0  0  0  0  0  0  0
   14.0565   -8.0570   16.8741 O   0  0  0  0  0  0  0  0  0  0  0  0
   14.4111   -6.9175   18.8822 N   0  0  0  0  0  0  0  0  0  0  0  0
   16.6545   -8.2058   18.7259 H   0  0  0  0  0  0  0  0  0  0  0  0
   15.1110   -6.5966   19.4958 H   0  0  0  0  0  0  0  0  0  0  0  0
   13.0819   -6.4226   19.0902 C   0  0  0  0  0  0  0  0  0  0  0  0
   11.9829   -7.2814   19.2993 C   0  0  0  0  0  0  0  0  0  0  0  0
   12.1409   -8.6266   19.3527 F   0  0  0  0  0  0  0  0  0  0  0  0
   10.7103   -6.7448   19.5197 C   0  0  0  0  0  0  0  0  0  0  0  0
   10.5244   -5.3606   19.5457 C   0  0  0  0  0  0  0  0  0  0  0  0
   11.6145   -4.5070   19.3648 C   0  0  0  0  0  0  0  0  0  0  0  0
   12.8885   -5.0377   19.1458 C   0  0  0  0  0  0  0  0  0  0  0  0
   17.3880   -9.6791   13.4239 O   0  0  0  0  0  0  0  0  0  0  0  0
   18.4926   -9.8887   12.5560 C   0  0  0  0  0  0  0  0  0  0  0  0
   18.1001   -9.5583   11.1609 C   0  0  0  0  0  0  0  0  0  0  0  0
   16.8997  -10.0359   10.6440 C   0  0  0  0  0  0  0  0  0  0  0  0
   16.5429   -9.6881    9.3420 C   0  0  0  0  0  0  0  0  0  0  0  0
   15.4574  -10.1244    8.8694 O   0  0  0  0  0  0  0  0  0  0  0  0
   17.3632   -8.8845    8.5958 N   0  0  0  0  0  0  0  0  0  0  0  0
   17.0125   -8.5444    7.3195 C   0  0  0  0  0  0  0  0  0  0  0  0
   17.8359   -7.7238    6.5463 C   0  0  0  0  0  0  0  0  0  0  0  0
   19.0286   -7.2484    7.0878 C   0  0  0  0  0  0  0  0  0  0  0  0
   19.3860   -7.5956    8.3894 C   0  0  0  0  0  0  0  0  0  0  0  0
   18.5413   -8.4191    9.1374 C   0  0  0  0  0  0  0  0  0  0  0  0
   18.8917   -8.7560   10.4056 N   0  0  0  0  0  0  0  0  0  0  0  0
  1  2  1  0  0  0
  2  3  2  0  0  0
  3  4  1  0  0  0
  4  5  2  0  0  0
  5  8  1  0  0  0
  5  6  1  0  0  0
  8  9  1  0  0  0
  9 10  2  0  0  0
  9 11  1  0  0  0
 11 14  1  0  0  0
 14 15  2  0  0  0
 15 16  1  0  0  0
 15 17  1  0  0  0
 17 18  2  0  0  0
 18 19  1  0  0  0
 19 20  2  0  0  0
 20 14  1  0  0  0
  6  7  2  0  0  0
  7 21  1  0  0  0
  7  2  1  0  0  0
 21 22  1  0  0  0
 22 23  1  0  0  0
 23 24  2  0  0  0
 24 25  1  0  0  0
 25 26  2  0  0  0
 25 27  1  0  0  0
 27 28  1  0  0  0
 28 29  2  0  0  0
 29 30  1  0  0  0
 30 31  2  0  0  0
 31 32  1  0  0  0
 32 33  2  0  0  0
 32 27  1  0  0  0
 33 23  1  0  0  0
  8 12  1  0  0  0
 11 13  1  0  0  0
M  END
>  <minimizedAffinity>
-9.40875

>  <minimizedRMSD>
1.57656

$$$$
ChemDiv-G357-0253 MCULE-5323440295 MolPort-007-847-110 PubChem-46343242 ZINC000015771482


 34 37  0  0  0  0  0  0  0  0999 V2000
   18.0291  -10.8608   13.3762 C   0  0  0  0  0  0  0  0  0  0  0  0
   18.2787  -12.0979   13.3532 O   0  0  0  0  0  0  0  0  0  0  0  0
   17.4983  -10.2381   14.5995 C   0  0  0  0  0  0  0  0  0  0  0  0
   17.6409  -10.8711   15.8421 C   0  0  0  0  0  0  0  0  0  0  0  0
   17.1336  -10.2747   17.0001 C   0  0  0  0  0  0  0  0  0  0  0  0
   16.4776   -9.0415   16.9328 C   0  0  0  0  0  0  0  0  0  0  0  0
   16.3354   -8.4078   15.6896 C   0  0  0  0  0  0  0  0  0  0  0  0
   16.8422   -9.0023   14.5309 C   0  0  0  0  0  0  0  0  0  0  0  0
   15.9738   -8.4610   18.1435 N   0  0  0  0  0  0  0  0  0  0  0  0
   14.7894   -7.6625   18.2885 C   0  0  0  0  0  0  0  0  0  0  0  0
   14.0480   -7.4272   17.2956 O   0  0  0  0  0  0  0  0  0  0  0  0
   16.4953   -8.6276   18.9618 H   0  0  0  0  0  0  0  0  0  0  0  0
   14.4341   -7.1170   19.6104 C   0  0  0  0  0  0  0  0  0  0  0  0
   13.2371   -6.4066   19.7876 C   0  0  0  0  0  0  0  0  0  0  0  0
   12.9014   -5.8884   21.0418 C   0  0  0  0  0  0  0  0  0  0  0  0
   13.7607   -6.0754   22.1274 C   0  0  0  0  0  0  0  0  0  0  0  0
   14.9551   -6.7809   21.9599 C   0  0  0  0  0  0  0  0  0  0  0  0
   15.2902   -7.3002   20.7062 C   0  0  0  0  0  0  0  0  0  0  0  0
   13.3417   -5.4250   23.6971 Cl  0  0  0  0  0  0  0  0  0  0  0  0
   18.2542  -10.0764   12.2426 O   0  0  0  0  0  0  0  0  0  0  0  0
   17.2111   -9.3438   11.6165 C   0  0  0  0  0  0  0  0  0  0  0  0
   17.9811   -8.9346    7.4909 N   0  0  0  0  0  0  0  0  0  0  0  0
   16.9981   -9.7925    7.8719 C   0  0  0  0  0  0  0  0  0  0  0  0
   16.3322  -10.4344    7.0168 O   0  0  0  0  0  0  0  0  0  0  0  0
   16.7313   -9.9497    9.2368 C   0  0  0  0  0  0  0  0  0  0  0  0
   17.4946   -9.2190   10.1625 C   0  0  0  0  0  0  0  0  0  0  0  0
   18.4639   -8.3628    9.7320 N   0  0  0  0  0  0  0  0  0  0  0  0
   18.6925   -8.2383    8.4019 C   0  0  0  0  0  0  0  0  0  0  0  0
   19.8361   -7.2458    7.6754 S   0  0  0  0  0  0  0  0  0  0  0  0
   19.3387   -7.7862    6.1458 C   0  0  0  0  0  0  0  0  0  0  0  0
   18.3309   -8.6914    6.2301 N   0  0  0  0  0  0  0  0  0  0  0  0
   19.9319   -7.3172    4.8600 C   0  0  0  0  0  0  0  0  0  0  0  0
   19.7121   -8.3477    3.7698 C   0  0  0  0  0  0  0  0  0  0  0  0
   21.4154   -7.0547    5.0276 C   0  0  0  0  0  0  0  0  0  0  0  0
 22 23  1  0  0  0
 23 24  2  0  0  0
 23 25  1  0  0  0
 25 26  2  0  0  0
 26 27  1  0  0  0
 27 28  2  0  0  0
 28 29  1  0  0  0
 29 30  1  0  0  0
 30 32  1  0  0  0
 32 33  1  0  0  0
 32 34  1  0  0  0
 30 31  2  0  0  0
 26 21  1  0  0  0
 21 20  1  0  0  0
 20  1  1  0  0  0
  1  2  2  0  0  0
  1  3  1  0  0  0
  3  4  2  0  0  0
  4  5  1  0  0  0
  5  6  2  0  0  0
  6  7  1  0  0  0
  7  8  2  0  0  0
  6  9  1  0  0  0
  9 10  1  0  0  0
 10 11  2  0  0  0
 10 13  1  0  0  0
 13 14  2  0  0  0
 14 15  1  0  0  0
 15 16  2  0  0  0
 16 17  1  0  0  0
 17 18  2  0  0  0
 16 19  1  0  0  0
 28 22  1  0  0  0
  8  3  1  0  0  0
 18 13  1  0  0  0
 31 22  1  0  0  0
  9 12  1  0  0  0
M  END
>  <minimizedAffinity>
-9.40132

>  <minimizedRMSD>
1.25407

$$$$
ChemDiv-G756-0118 MCULE-5749787250 MolPort-007-878-989 PubChem-46355894 ZINC000033067757 ZINC33067757


 30 33  0  0  0  0  0  0  0  0999 V2000
   16.7524   -9.9159   16.8711 C   0  0  0  0  0  0  0  0  0  0  0  0
   16.7691   -9.5023   15.5303 C   0  0  0  0  0  0  0  0  0  0  0  0
   17.4453  -10.2493   14.5607 C   0  0  0  0  0  0  0  0  0  0  0  0
   18.1128  -11.4249   14.9389 C   0  0  0  0  0  0  0  0  0  0  0  0
   18.1002  -11.8426   16.2717 C   0  0  0  0  0  0  0  0  0  0  0  0
   17.4217  -11.0893   17.2334 C   0  0  0  0  0  0  0  0  0  0  0  0
   15.2189   -8.0287   17.6943 C   0  0  0  0  0  0  0  0  0  0  0  0
   15.0060   -7.5753   16.5367 O   0  0  0  0  0  0  0  0  0  0  0  0
   16.0677   -9.1709   17.8873 N   0  0  0  0  0  0  0  0  0  0  0  0
   16.1927   -9.4746   18.8154 H   0  0  0  0  0  0  0  0  0  0  0  0
   11.1574   -5.1045   19.6145 Br  0  0  0  0  0  0  0  0  0  0  0  0
   12.7924   -6.0602   19.8219 C   0  0  0  0  0  0  0  0  0  0  0  0
   13.3965   -6.1467   21.0789 C   0  0  0  0  0  0  0  0  0  0  0  0
   14.5957   -6.8478   21.2304 C   0  0  0  0  0  0  0  0  0  0  0  0
   15.1906   -7.4624   20.1247 C   0  0  0  0  0  0  0  0  0  0  0  0
   14.5910   -7.3806   18.8593 C   0  0  0  0  0  0  0  0  0  0  0  0
   13.3872   -6.6747   18.7162 C   0  0  0  0  0  0  0  0  0  0  0  0
   17.4381   -9.8034   13.2368 O   0  0  0  0  0  0  0  0  0  0  0  0
   18.5783   -9.8878   12.3920 C   0  0  0  0  0  0  0  0  0  0  0  0
   18.1925   -9.5436   10.9981 C   0  0  0  0  0  0  0  0  0  0  0  0
   16.9701   -9.9709   10.4885 C   0  0  0  0  0  0  0  0  0  0  0  0
   16.6215   -9.6111    9.1877 C   0  0  0  0  0  0  0  0  0  0  0  0
   15.5155  -10.0013    8.7222 O   0  0  0  0  0  0  0  0  0  0  0  0
   17.4712   -8.8449    8.4353 N   0  0  0  0  0  0  0  0  0  0  0  0
   17.1283   -8.4927    7.1601 C   0  0  0  0  0  0  0  0  0  0  0  0
   17.9817   -7.7095    6.3806 C   0  0  0  0  0  0  0  0  0  0  0  0
   19.1965   -7.2844    6.9146 C   0  0  0  0  0  0  0  0  0  0  0  0
   19.5458   -7.6437    8.2150 C   0  0  0  0  0  0  0  0  0  0  0  0
   18.6710   -8.4289    8.9696 C   0  0  0  0  0  0  0  0  0  0  0  0
   19.0136   -8.7778   10.2366 N   0  0  0  0  0  0  0  0  0  0  0  0
 11 12  1  0  0  0
 12 13  2  0  0  0
 13 14  1  0  0  0
 14 15  2  0  0  0
 15 16  1  0  0  0
 16 17  2  0  0  0
 16  7  1  0  0  0
 17 12  1  0  0  0
  7  8  2  0  0  0
  7  9  1  0  0  0
  9  1  1  0  0  0
  1  2  2  0  0  0
  2  3  1  0  0  0
  3 18  1  0  0  0
  3  4  2  0  0  0
 18 19  1  0  0  0
 19 20  1  0  0  0
 20 21  2  0  0  0
 21 22  1  0  0  0
 22 23  2  0  0  0
 22 24  1  0  0  0
 24 25  1  0  0  0
 25 26  2  0  0  0
 26 27  1  0  0  0
 27 28  2  0  0  0
 28 29  1  0  0  0
 29 30  2  0  0  0
 29 24  1  0  0  0
 30 20  1  0  0  0
  4  5  1  0  0  0
  5  6  2  0  0  0
  6  1  1  0  0  0
  9 10  1  0  0  0
M  END
>  <minimizedAffinity>
-9.38418

>  <minimizedRMSD>
0.95031

$$$$
ChemDiv-G795-0378 MCULE-7093623856 MolPort-010-745-023 PubChem-53030373 ZINC000035447642


 28 30  0  0  0  0  0  0  0  0999 V2000
   17.3157   -9.9689   13.8733 C   0  0  0  0  0  0  0  0  0  0  0  0
   17.9528  -11.0756   14.4771 C   0  0  0  0  0  0  0  0  0  0  0  0
   18.8219  -12.0088   13.7051 C   0  0  0  0  0  0  0  0  0  0  0  0
   17.8350  -11.2752   15.8556 C   0  0  0  0  0  0  0  0  0  0  0  0
   17.1033  -10.3812   16.6395 C   0  0  0  0  0  0  0  0  0  0  0  0
   16.4911   -9.2656   16.0557 C   0  0  0  0  0  0  0  0  0  0  0  0
   16.6102   -9.0645   14.6741 C   0  0  0  0  0  0  0  0  0  0  0  0
   16.3579   -9.8895   11.5190 C   0  0  0  0  0  0  0  0  0  0  0  0
   15.1777  -10.0830   11.9186 O   0  0  0  0  0  0  0  0  0  0  0  0
   17.4125   -9.6974   12.4694 N   0  0  0  0  0  0  0  0  0  0  0  0
   18.2704   -9.3520   12.1318 H   0  0  0  0  0  0  0  0  0  0  0  0
   16.6258   -9.8183   10.0689 C   0  0  0  0  0  0  0  0  0  0  0  0
   17.6479   -9.0349    9.4705 C   0  0  0  0  0  0  0  0  0  0  0  0
   18.5733   -8.2031   10.1112 C   0  0  0  0  0  0  0  0  0  0  0  0
   19.5148   -7.5069    9.3337 C   0  0  0  0  0  0  0  0  0  0  0  0
   19.5277   -7.6442    7.9319 C   0  0  0  0  0  0  0  0  0  0  0  0
   18.6002   -8.4791    7.2905 C   0  0  0  0  0  0  0  0  0  0  0  0
   17.6829   -9.1525    8.0902 C   0  0  0  0  0  0  0  0  0  0  0  0
   16.4696  -10.2037    7.6713 S   0  0  0  0  0  0  0  0  0  0  0  0
   15.8705  -10.5392    9.1908 N   0  0  0  0  0  0  0  0  0  0  0  0
   15.7320   -8.3135   16.8852 C   0  0  0  0  0  0  0  0  0  0  0  0
   15.9022   -8.3071   18.3048 N   0  0  0  0  0  0  0  0  0  0  0  0
   14.9312   -7.5028   16.3434 O   0  0  0  0  0  0  0  0  0  0  0  0
   16.5291   -8.9473   18.7128 H   0  0  0  0  0  0  0  0  0  0  0  0
   15.1783   -7.3842   19.1651 C   0  0  0  0  0  0  0  0  0  0  0  0
   15.0003   -7.9915   20.5444 C   0  0  0  0  0  0  0  0  0  0  0  0
   15.3901   -6.9899   21.6146 C   0  0  0  0  0  0  0  0  0  0  0  0
   14.9308   -7.4921   22.9668 C   0  0  0  0  0  0  0  0  0  0  0  0
 12 13  1  0  0  0
 13 14  2  0  0  0
 14 15  1  0  0  0
 15 16  2  0  0  0
 16 17  1  0  0  0
 17 18  2  0  0  0
 18 19  1  0  0  0
 19 20  1  0  0  0
 12  8  1  0  0  0
  8  9  2  0  0  0
  8 10  1  0  0  0
 10  1  1  0  0  0
  1  2  2  0  0  0
  2  3  1  0  0  0
  2  4  1  0  0  0
  4  5  2  0  0  0
  5  6  1  0  0  0
  6  7  2  0  0  0
  6 21  1  0  0  0
 21 22  1  0  0  0
 22 25  1  0  0  0
 25 26  1  0  0  0
 26 27  1  0  0  0
 27 28  1  0  0  0
 21 23  2  0  0  0
 20 12  2  0  0  0
  7  1  1  0  0  0
 18 13  1  0  0  0
 10 11  1  0  0  0
 22 24  1  0  0  0
M  END
>  <minimizedAffinity>
-9.37895

>  <minimizedRMSD>
0.97788

$$$$
ChemDiv-G756-0185 MCULE-4810786152 MolPort-007-879-010 PubChem-46355905 ZINC000021099554 ZINC21099554


 35 38  0  0  0  0  0  0  0  0999 V2000
   16.7932   -9.3123   17.1269 C   0  0  0  0  0  0  0  0  0  0  0  0
   16.8377   -9.0087   15.7575 C   0  0  0  0  0  0  0  0  0  0  0  0
   17.2895   -9.9535   14.8307 C   0  0  0  0  0  0  0  0  0  0  0  0
   17.7009  -11.2179   15.2812 C   0  0  0  0  0  0  0  0  0  0  0  0
   17.6593  -11.5269   16.6429 C   0  0  0  0  0  0  0  0  0  0  0  0
   17.2071  -10.5759   17.5613 C   0  0  0  0  0  0  0  0  0  0  0  0
   14.7564   -6.8793   19.2723 N   0  0  0  0  0  0  0  0  0  0  0  0
   15.0106   -7.8423   18.2415 C   0  0  0  0  0  0  0  0  0  0  0  0
   14.0859   -8.2248   17.4750 O   0  0  0  0  0  0  0  0  0  0  0  0
   16.3387   -8.3629   18.1012 N   0  0  0  0  0  0  0  0  0  0  0  0
   15.5228   -6.6363   19.8405 H   0  0  0  0  0  0  0  0  0  0  0  0
   17.0102   -8.0340   18.7417 H   0  0  0  0  0  0  0  0  0  0  0  0
   13.2226   -5.8012   20.8929 C   0  0  0  0  0  0  0  0  0  0  0  0
   13.5104   -6.2278   19.5713 C   0  0  0  0  0  0  0  0  0  0  0  0
   12.5648   -6.0006   18.5577 C   0  0  0  0  0  0  0  0  0  0  0  0
   11.3543   -5.3652   18.8335 C   0  0  0  0  0  0  0  0  0  0  0  0
   11.0709   -4.9449   20.1308 C   0  0  0  0  0  0  0  0  0  0  0  0
   11.9984   -5.1614   21.1502 C   0  0  0  0  0  0  0  0  0  0  0  0
   14.1602   -5.9994   22.0265 C   0  0  0  0  0  0  0  0  0  0  0  0
   14.6801   -4.9941   22.5870 O   0  0  0  0  0  0  0  0  0  0  0  0
   15.2557   -7.4991   23.6461 C   0  0  0  0  0  0  0  0  0  0  0  0
   14.4731   -7.2827   22.4815 O   0  0  0  0  0  0  0  0  0  0  0  0
   17.3197   -9.6120   13.4763 O   0  0  0  0  0  0  0  0  0  0  0  0
   18.3304  -10.0755   12.5907 C   0  0  0  0  0  0  0  0  0  0  0  0
   17.9928   -9.6820   11.1974 C   0  0  0  0  0  0  0  0  0  0  0  0
   16.7917  -10.0966   10.6296 C   0  0  0  0  0  0  0  0  0  0  0  0
   16.4907   -9.6974    9.3283 C   0  0  0  0  0  0  0  0  0  0  0  0
   15.4039  -10.0751    8.8102 O   0  0  0  0  0  0  0  0  0  0  0  0
   17.3671   -8.9097    8.6306 N   0  0  0  0  0  0  0  0  0  0  0  0
   17.0719   -8.5207    7.3543 C   0  0  0  0  0  0  0  0  0  0  0  0
   17.9528   -7.7151    6.6304 C   0  0  0  0  0  0  0  0  0  0  0  0
   19.1454   -7.3034    7.2226 C   0  0  0  0  0  0  0  0  0  0  0  0
   19.4463   -7.7001    8.5241 C   0  0  0  0  0  0  0  0  0  0  0  0
   18.5455   -8.5088    9.2215 C   0  0  0  0  0  0  0  0  0  0  0  0
   18.8412   -8.8948   10.4896 N   0  0  0  0  0  0  0  0  0  0  0  0
 21 22  1  0  0  0
 22 19  1  0  0  0
 19 20  2  0  0  0
 19 13  1  0  0  0
 13 14  2  0  0  0
 14  7  1  0  0  0
 14 15  1  0  0  0
  7  8  1  0  0  0
  8  9  2  0  0  0
  8 10  1  0  0  0
 10  1  1  0  0  0
  1  2  2  0  0  0
  2  3  1  0  0  0
  3 23  1  0  0  0
  3  4  2  0  0  0
 23 24  1  0  0  0
 24 25  1  0  0  0
 25 26  2  0  0  0
 26 27  1  0  0  0
 27 28  2  0  0  0
 27 29  1  0  0  0
 29 30  1  0  0  0
 30 31  2  0  0  0
 31 32  1  0  0  0
 32 33  2  0  0  0
 33 34  1  0  0  0
 34 35  2  0  0  0
 34 29  1  0  0  0
 35 25  1  0  0  0
  4  5  1  0  0  0
  5  6  2  0  0  0
  6  1  1  0  0  0
 15 16  2  0  0  0
 16 17  1  0  0  0
 17 18  2  0  0  0
 18 13  1  0  0  0
  7 11  1  0  0  0
 10 12  1  0  0  0
M  END
>  <minimizedAffinity>
-9.36895

>  <minimizedRMSD>
1.44345

$$$$
ChemDiv-G355-3277 MCULE-2772207184 MolPort-010-743-033 PubChem-50793961 ZINC000035428423 ZINC35428423


 34 37  0  0  0  0  0  0  0  0999 V2000
   16.9022   -9.9742   16.5642 C   0  0  0  0  0  0  0  0  0  0  0  0
   17.5138  -11.1932   16.8577 C   0  0  0  0  0  0  0  0  0  0  0  0
   18.1035  -11.9478   15.8432 C   0  0  0  0  0  0  0  0  0  0  0  0
   18.0923  -11.4968   14.5198 C   0  0  0  0  0  0  0  0  0  0  0  0
   18.7431  -12.3708   13.5036 C   0  0  0  0  0  0  0  0  0  0  0  0
   17.4742  -10.2572   14.2063 C   0  0  0  0  0  0  0  0  0  0  0  0
   16.8881   -9.5173   15.2399 C   0  0  0  0  0  0  0  0  0  0  0  0
   15.4371   -8.0934   17.5046 C   0  0  0  0  0  0  0  0  0  0  0  0
   15.0919   -7.6568   16.3748 O   0  0  0  0  0  0  0  0  0  0  0  0
   16.3067   -9.2256   17.6324 N   0  0  0  0  0  0  0  0  0  0  0  0
   16.5168   -9.5196   18.5482 H   0  0  0  0  0  0  0  0  0  0  0  0
   14.9003   -7.4472   18.7306 C   0  0  0  0  0  0  0  0  0  0  0  0
   13.7535   -6.6756   18.3988 O   0  0  0  0  0  0  0  0  0  0  0  0
   11.2927   -4.8193   21.2647 C   0  0  0  0  0  0  0  0  0  0  0  0
   12.2858   -5.7137   21.6761 C   0  0  0  0  0  0  0  0  0  0  0  0
   13.1093   -6.3360   20.7338 C   0  0  0  0  0  0  0  0  0  0  0  0
   12.9468   -6.0689   19.3649 C   0  0  0  0  0  0  0  0  0  0  0  0
   11.9539   -5.1746   18.9534 C   0  0  0  0  0  0  0  0  0  0  0  0
   11.1305   -4.5520   19.8957 C   0  0  0  0  0  0  0  0  0  0  0  0
   10.8949   -4.0518   23.5823 C   0  0  0  0  0  0  0  0  0  0  0  0
   10.4854   -4.2130   22.2310 O   0  0  0  0  0  0  0  0  0  0  0  0
   17.4014   -9.7036   12.9178 O   0  0  0  0  0  0  0  0  0  0  0  0
   18.4833   -9.1148   12.2102 C   0  0  0  0  0  0  0  0  0  0  0  0
   18.2000   -9.1454   10.7514 C   0  0  0  0  0  0  0  0  0  0  0  0
   17.0773   -9.8521   10.2730 C   0  0  0  0  0  0  0  0  0  0  0  0
   16.8176   -9.8439    8.8971 C   0  0  0  0  0  0  0  0  0  0  0  0
   15.8300  -10.4624    8.4208 O   0  0  0  0  0  0  0  0  0  0  0  0
   17.6597   -9.1491    8.0953 N   0  0  0  0  0  0  0  0  0  0  0  0
   17.6147   -9.0006    6.8111 O   0  0  0  0  0  0  0  0  0  0  0  0
   18.6264   -8.2419    6.4375 C   0  0  0  0  0  0  0  0  0  0  0  0
   18.8968   -7.8560    5.0278 C   0  0  0  0  0  0  0  0  0  0  0  0
   19.3989   -7.8560    7.5383 C   0  0  0  0  0  0  0  0  0  0  0  0
   18.7149   -8.4780    8.5653 C   0  0  0  0  0  0  0  0  0  0  0  0
   19.0062   -8.4567    9.8890 N   0  0  0  0  0  0  0  0  0  0  0  0
 20 21  1  0  0  0
 21 14  1  0  0  0
 14 15  2  0  0  0
 15 16  1  0  0  0
 16 17  2  0  0  0
 17 13  1  0  0  0
 17 18  1  0  0  0
 13 12  1  0  0  0
 12  8  1  0  0  0
  8  9  2  0  0  0
  8 10  1  0  0  0
 10  1  1  0  0  0
  1  2  2  0  0  0
  2  3  1  0  0  0
  3  4  2  0  0  0
  4  5  1  0  0  0
  4  6  1  0  0  0
  6 22  1  0  0  0
  6  7  2  0  0  0
 22 23  1  0  0  0
 23 24  1  0  0  0
 24 25  2  0  0  0
 25 26  1  0  0  0
 26 27  2  0  0  0
 26 28  1  0  0  0
 28 29  1  0  0  0
 29 30  1  0  0  0
 30 31  1  0  0  0
 30 32  2  0  0  0
 32 33  1  0  0  0
 33 34  2  0  0  0
 33 28  1  0  0  0
 34 24  1  0  0  0
  7  1  1  0  0  0
 18 19  2  0  0  0
 19 14  1  0  0  0
 10 11  1  0  0  0
M  END
>  <minimizedAffinity>
-9.36043

>  <minimizedRMSD>
1.08111

$$$$
ChemDiv-G756-0196 CHEMBL1484206 MCULE-4964717153 MolPort-007-879-019 PubChem-16030568 ZINC000008598087 ZINC08598087


 36 39  0  0  0  0  0  0  0  0999 V2000
   17.7230  -10.2096   15.9910 C   0  0  0  0  0  0  0  0  0  0  0  0
   17.7897   -9.7629   14.6629 C   0  0  0  0  0  0  0  0  0  0  0  0
   18.1247  -10.6482   13.6259 C   0  0  0  0  0  0  0  0  0  0  0  0
   18.3932  -11.9868   13.9268 C   0  0  0  0  0  0  0  0  0  0  0  0
   18.3288  -12.4385   15.2474 C   0  0  0  0  0  0  0  0  0  0  0  0
   17.9947  -11.5518   16.2747 C   0  0  0  0  0  0  0  0  0  0  0  0
   15.9348   -7.9649   18.5274 N   0  0  0  0  0  0  0  0  0  0  0  0
   16.0774   -8.8329   17.3958 C   0  0  0  0  0  0  0  0  0  0  0  0
   15.0763   -9.1520   16.6997 O   0  0  0  0  0  0  0  0  0  0  0  0
   17.3818   -9.3307   17.0718 N   0  0  0  0  0  0  0  0  0  0  0  0
   16.7573   -7.7546   19.0260 H   0  0  0  0  0  0  0  0  0  0  0  0
   18.1214   -9.0386   17.6522 H   0  0  0  0  0  0  0  0  0  0  0  0
   14.6858   -6.8579   20.3196 C   0  0  0  0  0  0  0  0  0  0  0  0
   13.5042   -6.2741   20.8037 C   0  0  0  0  0  0  0  0  0  0  0  0
   12.3575   -6.1943   19.9993 C   0  0  0  0  0  0  0  0  0  0  0  0
   12.4002   -6.7074   18.6959 C   0  0  0  0  0  0  0  0  0  0  0  0
   10.9930   -6.6313   17.6510 Cl  0  0  0  0  0  0  0  0  0  0  0  0
   13.5737   -7.2884   18.2109 C   0  0  0  0  0  0  0  0  0  0  0  0
   14.7215   -7.3686   19.0127 C   0  0  0  0  0  0  0  0  0  0  0  0
   15.8307   -6.6075   22.5014 C   0  0  0  0  0  0  0  0  0  0  0  0
   15.8312   -6.9403   21.1198 O   0  0  0  0  0  0  0  0  0  0  0  0
   11.1769   -5.6131   20.4750 O   0  0  0  0  0  0  0  0  0  0  0  0
   11.1630   -4.6261   21.4975 C   0  0  0  0  0  0  0  0  0  0  0  0
   18.1965  -10.2250   12.2964 O   0  0  0  0  0  0  0  0  0  0  0  0
   17.3680   -9.1946   11.7739 C   0  0  0  0  0  0  0  0  0  0  0  0
   17.5431   -9.1130   10.2999 C   0  0  0  0  0  0  0  0  0  0  0  0
   16.7768   -9.9181    9.4626 C   0  0  0  0  0  0  0  0  0  0  0  0
   16.9801   -9.8415    8.0857 C   0  0  0  0  0  0  0  0  0  0  0  0
   16.2831  -10.5672    7.3244 O   0  0  0  0  0  0  0  0  0  0  0  0
   17.9246   -8.9904    7.5768 N   0  0  0  0  0  0  0  0  0  0  0  0
   18.1243   -8.9171    6.2268 C   0  0  0  0  0  0  0  0  0  0  0  0
   19.0853   -8.0574    5.6916 C   0  0  0  0  0  0  0  0  0  0  0  0
   19.8477   -7.2668    6.5492 C   0  0  0  0  0  0  0  0  0  0  0  0
   19.6437   -7.3417    7.9258 C   0  0  0  0  0  0  0  0  0  0  0  0
   18.6740   -8.2113    8.4307 C   0  0  0  0  0  0  0  0  0  0  0  0
   18.4785   -8.2837    9.7727 N   0  0  0  0  0  0  0  0  0  0  0  0
 20 21  1  0  0  0
 21 13  1  0  0  0
 13 14  2  0  0  0
 14 15  1  0  0  0
 15 22  1  0  0  0
 15 16  2  0  0  0
 22 23  1  0  0  0
 16 17  1  0  0  0
 16 18  1  0  0  0
 18 19  2  0  0  0
 19  7  1  0  0  0
 19 13  1  0  0  0
  7  8  1  0  0  0
  8  9  2  0  0  0
  8 10  1  0  0  0
 10  1  1  0  0  0
  1  2  2  0  0  0
  2  3  1  0  0  0
  3 24  1  0  0  0
  3  4  2  0  0  0
 24 25  1  0  0  0
 25 26  1  0  0  0
 26 27  2  0  0  0
 27 28  1  0  0  0
 28 29  2  0  0  0
 28 30  1  0  0  0
 30 31  1  0  0  0
 31 32  2  0  0  0
 32 33  1  0  0  0
 33 34  2  0  0  0
 34 35  1  0  0  0
 35 36  2  0  0  0
 35 30  1  0  0  0
 36 26  1  0  0  0
  4  5  1  0  0  0
  5  6  2  0  0  0
  6  1  1  0  0  0
  7 11  1  0  0  0
 10 12  1  0  0  0
M  END
>  <minimizedAffinity>
-9.35989

>  <minimizedRMSD>
1.54078

$$$$
ChemDiv-D439-4248 MCULE-2485183595 MolPort-007-706-796 PubChem-46268378 ZINC000021797212 ZINC21797212


 35 38  0  0  0  0  0  0  0  0999 V2000
   17.5701  -10.1696   14.3688 C   0  0  0  0  0  0  0  0  0  0  0  0
   17.0923   -9.3600   15.4055 C   0  0  0  0  0  0  0  0  0  0  0  0
   17.0943   -9.8011   16.7357 C   0  0  0  0  0  0  0  0  0  0  0  0
   17.5744  -11.0770   17.0296 C   0  0  0  0  0  0  0  0  0  0  0  0
   18.0490  -11.9034   16.0106 C   0  0  0  0  0  0  0  0  0  0  0  0
   18.0531  -11.4676   14.6826 C   0  0  0  0  0  0  0  0  0  0  0  0
   18.5418  -12.4299   13.6553 C   0  0  0  0  0  0  0  0  0  0  0  0
   16.6001   -8.9848   17.8062 N   0  0  0  0  0  0  0  0  0  0  0  0
   15.6054   -7.9590   17.7101 C   0  0  0  0  0  0  0  0  0  0  0  0
   15.1184   -7.6238   16.5985 O   0  0  0  0  0  0  0  0  0  0  0  0
   16.9840   -9.1460   18.6984 H   0  0  0  0  0  0  0  0  0  0  0  0
   15.1423   -7.2751   18.9507 C   0  0  0  0  0  0  0  0  0  0  0  0
   13.8880   -6.6418   18.7233 O   0  0  0  0  0  0  0  0  0  0  0  0
   12.6504   -7.3032   18.6673 C   0  0  0  0  0  0  0  0  0  0  0  0
   12.1738   -8.1810   19.6748 C   0  0  0  0  0  0  0  0  0  0  0  0
   12.9134   -8.4353   20.9430 C   0  0  0  0  0  0  0  0  0  0  0  0
   10.9304   -8.8033   19.5211 C   0  0  0  0  0  0  0  0  0  0  0  0
   10.1513   -8.5622   18.3887 C   0  0  0  0  0  0  0  0  0  0  0  0
   10.6074   -7.6860   17.4039 C   0  0  0  0  0  0  0  0  0  0  0  0
   11.8470   -7.0593   17.5469 C   0  0  0  0  0  0  0  0  0  0  0  0
   17.5249   -9.6298   13.0745 O   0  0  0  0  0  0  0  0  0  0  0  0
   16.5905   -9.9924   12.0677 C   0  0  0  0  0  0  0  0  0  0  0  0
   18.6648   -8.2161    7.3015 N   0  0  0  0  0  0  0  0  0  0  0  0
   19.6265   -7.4263    7.8307 C   0  0  0  0  0  0  0  0  0  0  0  0
   19.5957   -7.4561    9.1916 N   0  0  0  0  0  0  0  0  0  0  0  0
   18.5771   -8.3048    9.4312 C   0  0  0  0  0  0  0  0  0  0  0  0
   18.1397   -8.6874   10.6559 N   0  0  0  0  0  0  0  0  0  0  0  0
   17.1033   -9.5738   10.7366 C   0  0  0  0  0  0  0  0  0  0  0  0
   16.5022  -10.0804    9.5677 C   0  0  0  0  0  0  0  0  0  0  0  0
   16.9906   -9.6603    8.3243 C   0  0  0  0  0  0  0  0  0  0  0  0
   16.4904  -10.1053    7.2591 O   0  0  0  0  0  0  0  0  0  0  0  0
   18.0169   -8.7680    8.3119 N   0  0  0  0  0  0  0  0  0  0  0  0
   18.4294   -8.4320    5.8782 C   0  0  0  0  0  0  0  0  0  0  0  0
   19.9847   -8.6503    3.9410 C   0  0  0  0  0  0  0  0  0  0  0  0
   19.4917   -7.7340    5.0434 C   0  0  0  0  0  0  0  0  0  0  0  0
 34 35  1  0  0  0
 35 33  1  0  0  0
 33 23  1  0  0  0
 23 24  1  0  0  0
 24 25  2  0  0  0
 25 26  1  0  0  0
 26 27  2  0  0  0
 27 28  1  0  0  0
 28 22  1  0  0  0
 28 29  2  0  0  0
 22 21  1  0  0  0
 21  1  1  0  0  0
  1  2  2  0  0  0
  2  3  1  0  0  0
  3  8  1  0  0  0
  3  4  2  0  0  0
  8  9  1  0  0  0
  9 10  2  0  0  0
  9 12  1  0  0  0
 12 13  1  0  0  0
 13 14  1  0  0  0
 14 15  2  0  0  0
 15 16  1  0  0  0
 15 17  1  0  0  0
 17 18  2  0  0  0
 18 19  1  0  0  0
 19 20  2  0  0  0
 20 14  1  0  0  0
  4  5  1  0  0  0
  5  6  2  0  0  0
  6  7  1  0  0  0
  6  1  1  0  0  0
 29 30  1  0  0  0
 30 31  2  0  0  0
 30 32  1  0  0  0
 32 23  1  0  0  0
 32 26  1  0  0  0
  8 11  1  0  0  0
M  END
>  <minimizedAffinity>
-9.35907

>  <minimizedRMSD>
1.54349

$$$$
ChemDiv-G795-0358 MCULE-4724149538 MolPort-010-745-016 PubChem-53030367 ZINC000035447629


 27 29  0  0  0  0  0  0  0  0999 V2000
   17.3181   -9.9702   13.8685 C   0  0  0  0  0  0  0  0  0  0  0  0
   17.9553  -11.0768   14.4726 C   0  0  0  0  0  0  0  0  0  0  0  0
   18.8245  -12.0099   13.7007 C   0  0  0  0  0  0  0  0  0  0  0  0
   17.8375  -11.2761   15.8511 C   0  0  0  0  0  0  0  0  0  0  0  0
   17.1057  -10.3822   16.6348 C   0  0  0  0  0  0  0  0  0  0  0  0
   16.4934   -9.2667   16.0509 C   0  0  0  0  0  0  0  0  0  0  0  0
   16.6125   -9.0658   14.6692 C   0  0  0  0  0  0  0  0  0  0  0  0
   16.3596   -9.8903   11.5146 C   0  0  0  0  0  0  0  0  0  0  0  0
   15.1794  -10.0829   11.9146 O   0  0  0  0  0  0  0  0  0  0  0  0
   17.4148   -9.6990   12.4646 N   0  0  0  0  0  0  0  0  0  0  0  0
   18.2729   -9.3544   12.1268 H   0  0  0  0  0  0  0  0  0  0  0  0
   16.6271   -9.8193   10.0644 C   0  0  0  0  0  0  0  0  0  0  0  0
   17.6483   -9.0351    9.4655 C   0  0  0  0  0  0  0  0  0  0  0  0
   18.5729   -8.2020   10.1056 C   0  0  0  0  0  0  0  0  0  0  0  0
   19.5135   -7.5051    9.3277 C   0  0  0  0  0  0  0  0  0  0  0  0
   19.5262   -7.6430    7.9259 C   0  0  0  0  0  0  0  0  0  0  0  0
   18.5995   -8.4790    7.2851 C   0  0  0  0  0  0  0  0  0  0  0  0
   17.6832   -9.1532    8.0852 C   0  0  0  0  0  0  0  0  0  0  0  0
   16.4707  -10.2058    7.6670 S   0  0  0  0  0  0  0  0  0  0  0  0
   15.8724  -10.5413    9.1867 N   0  0  0  0  0  0  0  0  0  0  0  0
   15.7341   -8.3145   16.8801 C   0  0  0  0  0  0  0  0  0  0  0  0
   15.9066   -8.3056   18.2995 N   0  0  0  0  0  0  0  0  0  0  0  0
   14.9311   -7.5059   16.3383 O   0  0  0  0  0  0  0  0  0  0  0  0
   16.5355   -8.9437   18.7075 H   0  0  0  0  0  0  0  0  0  0  0  0
   15.1817   -7.3830   19.1595 C   0  0  0  0  0  0  0  0  0  0  0  0
   14.9916   -7.9951   20.5349 C   0  0  0  0  0  0  0  0  0  0  0  0
   15.3798   -7.0007   21.6121 C   0  0  0  0  0  0  0  0  0  0  0  0
 12 13  1  0  0  0
 13 14  2  0  0  0
 14 15  1  0  0  0
 15 16  2  0  0  0
 16 17  1  0  0  0
 17 18  2  0  0  0
 18 19  1  0  0  0
 19 20  1  0  0  0
 12  8  1  0  0  0
  8  9  2  0  0  0
  8 10  1  0  0  0
 10  1  1  0  0  0
  1  2  2  0  0  0
  2  3  1  0  0  0
  2  4  1  0  0  0
  4  5  2  0  0  0
  5  6  1  0  0  0
  6  7  2  0  0  0
  6 21  1  0  0  0
 21 22  1  0  0  0
 22 25  1  0  0  0
 25 26  1  0  0  0
 26 27  1  0  0  0
 21 23  2  0  0  0
 20 12  2  0  0  0
  7  1  1  0  0  0
 18 13  1  0  0  0
 10 11  1  0  0  0
 22 24  1  0  0  0
M  END
>  <minimizedAffinity>
-9.35848

>  <minimizedRMSD>
0.84407

$$$$
ChemDiv-G355-3254 MCULE-7329406307 MolPort-010-772-279 PubChem-50793978 ZINC000045995788


 31 34  0  0  0  0  0  0  0  0999 V2000
   17.4300  -10.2370   14.2630 C   0  0  0  0  0  0  0  0  0  0  0  0
   18.1098  -11.4390   14.5948 C   0  0  0  0  0  0  0  0  0  0  0  0
   18.8302  -12.2782   13.5964 C   0  0  0  0  0  0  0  0  0  0  0  0
   18.1199  -11.8833   15.9205 C   0  0  0  0  0  0  0  0  0  0  0  0
   17.4696  -11.1584   16.9194 C   0  0  0  0  0  0  0  0  0  0  0  0
   16.7978   -9.9762   16.6080 C   0  0  0  0  0  0  0  0  0  0  0  0
   16.7843   -9.5263   15.2813 C   0  0  0  0  0  0  0  0  0  0  0  0
   16.1405   -9.2579   17.6609 N   0  0  0  0  0  0  0  0  0  0  0  0
   15.3104   -8.0943   17.5226 C   0  0  0  0  0  0  0  0  0  0  0  0
   15.0905   -7.5939   16.3859 O   0  0  0  0  0  0  0  0  0  0  0  0
   16.2723   -9.5985   18.5751 H   0  0  0  0  0  0  0  0  0  0  0  0
   14.7102   -7.4794   18.7197 C   0  0  0  0  0  0  0  0  0  0  0  0
   13.4921   -6.7888   18.6290 C   0  0  0  0  0  0  0  0  0  0  0  0
   12.9236   -6.2058   19.7654 C   0  0  0  0  0  0  0  0  0  0  0  0
   13.5685   -6.3089   21.0007 C   0  0  0  0  0  0  0  0  0  0  0  0
   14.7820   -6.9949   21.1001 C   0  0  0  0  0  0  0  0  0  0  0  0
   15.3506   -7.5780   19.9638 C   0  0  0  0  0  0  0  0  0  0  0  0
   12.9643   -5.6893   22.2086 C   0  0  0  0  0  0  0  0  0  0  0  0
   17.3518   -9.6936   12.9705 O   0  0  0  0  0  0  0  0  0  0  0  0
   18.4268   -9.0963   12.2599 C   0  0  0  0  0  0  0  0  0  0  0  0
   17.6182   -9.1893    8.1429 N   0  0  0  0  0  0  0  0  0  0  0  0
   17.5773   -9.0584    6.8566 O   0  0  0  0  0  0  0  0  0  0  0  0
   18.5889   -8.3029    6.4762 C   0  0  0  0  0  0  0  0  0  0  0  0
   19.3568   -7.9004    7.5743 C   0  0  0  0  0  0  0  0  0  0  0  0
   18.6705   -8.5097    8.6073 C   0  0  0  0  0  0  0  0  0  0  0  0
   18.9570   -8.4697    9.9316 N   0  0  0  0  0  0  0  0  0  0  0  0
   18.1492   -9.1482   10.8005 C   0  0  0  0  0  0  0  0  0  0  0  0
   17.0295   -9.8635   10.3280 C   0  0  0  0  0  0  0  0  0  0  0  0
   16.7746   -9.8745    8.9512 C   0  0  0  0  0  0  0  0  0  0  0  0
   15.7898  -10.5013    8.4800 O   0  0  0  0  0  0  0  0  0  0  0  0
   18.8634   -7.9355    5.0623 C   0  0  0  0  0  0  0  0  0  0  0  0
 21 22  1  0  0  0
 22 23  1  0  0  0
 23 24  2  0  0  0
 24 25  1  0  0  0
 25 26  2  0  0  0
 26 27  1  0  0  0
 27 20  1  0  0  0
 20 19  1  0  0  0
 19  1  1  0  0  0
  1  2  2  0  0  0
  2  3  1  0  0  0
  2  4  1  0  0  0
  4  5  2  0  0  0
  5  6  1  0  0  0
  6  7  2  0  0  0
  6  8  1  0  0  0
  8  9  1  0  0  0
  9 10  2  0  0  0
  9 12  1  0  0  0
 12 13  2  0  0  0
 13 14  1  0  0  0
 14 15  2  0  0  0
 15 16  1  0  0  0
 16 17  2  0  0  0
 15 18  1  0  0  0
 27 28  2  0  0  0
 28 29  1  0  0  0
 29 30  2  0  0  0
 23 31  1  0  0  0
 25 21  1  0  0  0
  7  1  1  0  0  0
 17 12  1  0  0  0
 29 21  1  0  0  0
  8 11  1  0  0  0
M  END
>  <minimizedAffinity>
-9.35076

>  <minimizedRMSD>
1.10817

$$$$
ChemDiv-C679-5956 MCULE-6759527176 MolPort-007-656-188 PubChem-20874363 ZINC000013368416


 35 39  0  0  0  0  0  0  0  0999 V2000
   16.9544   -9.6808   14.2756 C   0  0  0  0  0  0  0  0  0  0  0  0
   17.7259  -10.8346   14.4856 C   0  0  0  0  0  0  0  0  0  0  0  0
   17.9928  -11.2751   15.7840 C   0  0  0  0  0  0  0  0  0  0  0  0
   17.4913  -10.5664   16.8788 C   0  0  0  0  0  0  0  0  0  0  0  0
   16.7211   -9.4150   16.6847 C   0  0  0  0  0  0  0  0  0  0  0  0
   16.4569   -8.9779   15.3775 C   0  0  0  0  0  0  0  0  0  0  0  0
   16.2264   -8.7144   17.8338 N   0  0  0  0  0  0  0  0  0  0  0  0
   15.0915   -7.8402   17.8823 C   0  0  0  0  0  0  0  0  0  0  0  0
   14.3828   -7.6296   16.8626 O   0  0  0  0  0  0  0  0  0  0  0  0
   16.7170   -8.8476   18.6769 H   0  0  0  0  0  0  0  0  0  0  0  0
   14.7209   -7.2017   19.1722 C   0  0  0  0  0  0  0  0  0  0  0  0
   13.3049   -7.1560   19.2911 O   0  0  0  0  0  0  0  0  0  0  0  0
   12.6538   -6.3985   20.2682 C   0  0  0  0  0  0  0  0  0  0  0  0
   13.1039   -6.3680   21.5986 C   0  0  0  0  0  0  0  0  0  0  0  0
   12.4295   -5.6002   22.5527 C   0  0  0  0  0  0  0  0  0  0  0  0
   11.3032   -4.8594   22.1841 C   0  0  0  0  0  0  0  0  0  0  0  0
   10.8511   -4.8863   20.8618 C   0  0  0  0  0  0  0  0  0  0  0  0
   11.5254   -5.6540   19.9074 C   0  0  0  0  0  0  0  0  0  0  0  0
   10.5857   -4.0439   23.1982 C   0  0  0  0  0  0  0  0  0  0  0  0
   16.6692   -9.2133   12.9902 O   0  0  0  0  0  0  0  0  0  0  0  0
   16.1142  -10.0428   11.9778 C   0  0  0  0  0  0  0  0  0  0  0  0
   17.7925   -8.9971    8.2416 N   0  0  0  0  0  0  0  0  0  0  0  0
   18.4883   -8.5372    7.1587 C   0  0  0  0  0  0  0  0  0  0  0  0
   18.1400   -8.8307    5.7249 C   0  0  0  0  0  0  0  0  0  0  0  0
   19.3525   -8.6145    4.8153 C   0  0  0  0  0  0  0  0  0  0  0  0
   19.9609   -7.2317    5.0607 C   0  0  0  0  0  0  0  0  0  0  0  0
   20.5002   -7.0998    6.4908 C   0  0  0  0  0  0  0  0  0  0  0  0
   19.5550   -7.6997    7.4871 C   0  0  0  0  0  0  0  0  0  0  0  0
   19.6661   -7.5572    9.1651 S   0  0  0  0  0  0  0  0  0  0  0  0
   18.3261   -8.5453    9.4038 C   0  0  0  0  0  0  0  0  0  0  0  0
   17.8021   -8.8789   10.6084 N   0  0  0  0  0  0  0  0  0  0  0  0
   16.7131   -9.6935   10.6626 C   0  0  0  0  0  0  0  0  0  0  0  0
   16.1295  -10.1718    9.4818 C   0  0  0  0  0  0  0  0  0  0  0  0
   16.6940   -9.8111    8.2541 C   0  0  0  0  0  0  0  0  0  0  0  0
   16.1821  -10.2402    7.1859 O   0  0  0  0  0  0  0  0  0  0  0  0
 22 23  1  0  0  0
 23 24  1  0  0  0
 24 25  1  0  0  0
 25 26  1  0  0  0
 26 27  1  0  0  0
 27 28  1  0  0  0
 28 29  1  0  0  0
 29 30  1  0  0  0
 30 31  2  0  0  0
 31 32  1  0  0  0
 32 21  1  0  0  0
 21 20  1  0  0  0
 20  1  1  0  0  0
  1  2  2  0  0  0
  2  3  1  0  0  0
  3  4  2  0  0  0
  4  5  1  0  0  0
  5  6  2  0  0  0
  5  7  1  0  0  0
  7  8  1  0  0  0
  8 11  1  0  0  0
 11 12  1  0  0  0
 12 13  1  0  0  0
 13 14  2  0  0  0
 14 15  1  0  0  0
 15 16  2  0  0  0
 16 17  1  0  0  0
 17 18  2  0  0  0
 16 19  1  0  0  0
  8  9  2  0  0  0
 32 33  2  0  0  0
 33 34  1  0  0  0
 34 35  2  0  0  0
 30 22  1  0  0  0
  6  1  1  0  0  0
 18 13  1  0  0  0
 34 22  1  0  0  0
 28 23  2  0  0  0
  7 10  1  0  0  0
M  END
>  <minimizedAffinity>
-9.34868

>  <minimizedRMSD>
1.09592

$$$$
ChemDiv-G756-2263 MCULE-3749430963 MolPort-010-744-726 PubChem-50802574 ZINC000033268650 ZINC33268650


 33 36  0  0  0  0  0  0  0  0999 V2000
   17.2531  -10.2202   16.4760 C   0  0  0  0  0  0  0  0  0  0  0  0
   17.3836   -9.7421   15.1632 C   0  0  0  0  0  0  0  0  0  0  0  0
   17.8874  -10.5646   14.1507 C   0  0  0  0  0  0  0  0  0  0  0  0
   18.2645  -11.8815   14.4570 C   0  0  0  0  0  0  0  0  0  0  0  0
   18.1368  -12.3641   15.7617 C   0  0  0  0  0  0  0  0  0  0  0  0
   17.6322  -11.5348   16.7667 C   0  0  0  0  0  0  0  0  0  0  0  0
   15.8513   -8.2831   17.3999 C   0  0  0  0  0  0  0  0  0  0  0  0
   15.4393   -7.9063   16.2711 O   0  0  0  0  0  0  0  0  0  0  0  0
   16.7373   -9.4018   17.5339 N   0  0  0  0  0  0  0  0  0  0  0  0
   17.0214   -9.6321   18.4479 H   0  0  0  0  0  0  0  0  0  0  0  0
   15.3747   -7.5789   18.6231 C   0  0  0  0  0  0  0  0  0  0  0  0
   14.1917   -6.8430   18.3325 O   0  0  0  0  0  0  0  0  0  0  0  0
   13.1933   -8.0952   20.8819 C   0  0  0  0  0  0  0  0  0  0  0  0
   12.3918   -7.9709   19.6319 C   0  0  0  0  0  0  0  0  0  0  0  0
   12.8865   -7.3435   18.4600 C   0  0  0  0  0  0  0  0  0  0  0  0
   12.0331   -7.1922   17.3604 C   0  0  0  0  0  0  0  0  0  0  0  0
   10.7225   -7.6722   17.3996 C   0  0  0  0  0  0  0  0  0  0  0  0
   10.2459   -8.3048   18.5477 C   0  0  0  0  0  0  0  0  0  0  0  0
   11.0769   -8.4477   19.6600 C   0  0  0  0  0  0  0  0  0  0  0  0
   18.0020  -10.0508   12.8565 O   0  0  0  0  0  0  0  0  0  0  0  0
   16.9257   -9.4053   12.1887 C   0  0  0  0  0  0  0  0  0  0  0  0
   17.2177   -9.3267   10.7332 C   0  0  0  0  0  0  0  0  0  0  0  0
   16.5158  -10.1288    9.8383 C   0  0  0  0  0  0  0  0  0  0  0  0
   16.7903  -10.0154    8.4763 C   0  0  0  0  0  0  0  0  0  0  0  0
   16.1582  -10.7448    7.6636 O   0  0  0  0  0  0  0  0  0  0  0  0
   17.7312   -9.1229    8.0368 N   0  0  0  0  0  0  0  0  0  0  0  0
   17.9992   -9.0126    6.7013 C   0  0  0  0  0  0  0  0  0  0  0  0
   18.9531   -8.1055    6.2375 C   0  0  0  0  0  0  0  0  0  0  0  0
   19.2861   -7.9750    4.5245 Cl  0  0  0  0  0  0  0  0  0  0  0  0
   19.6375   -7.3047    7.1493 C   0  0  0  0  0  0  0  0  0  0  0  0
   19.3636   -7.4177    8.5110 C   0  0  0  0  0  0  0  0  0  0  0  0
   18.4039   -8.3354    8.9453 C   0  0  0  0  0  0  0  0  0  0  0  0
   18.1387   -8.4434   10.2729 N   0  0  0  0  0  0  0  0  0  0  0  0
 13 14  1  0  0  0
 14 15  2  0  0  0
 15 12  1  0  0  0
 15 16  1  0  0  0
 12 11  1  0  0  0
 11  7  1  0  0  0
  7  8  2  0  0  0
  7  9  1  0  0  0
  9  1  1  0  0  0
  1  2  2  0  0  0
  2  3  1  0  0  0
  3 20  1  0  0  0
  3  4  2  0  0  0
 20 21  1  0  0  0
 21 22  1  0  0  0
 22 23  2  0  0  0
 23 24  1  0  0  0
 24 25  2  0  0  0
 24 26  1  0  0  0
 26 27  1  0  0  0
 27 28  2  0  0  0
 28 29  1  0  0  0
 28 30  1  0  0  0
 30 31  2  0  0  0
 31 32  1  0  0  0
 32 33  2  0  0  0
 32 26  1  0  0  0
 33 22  1  0  0  0
  4  5  1  0  0  0
  5  6  2  0  0  0
  6  1  1  0  0  0
 16 17  2  0  0  0
 17 18  1  0  0  0
 18 19  2  0  0  0
 19 14  1  0  0  0
  9 10  1  0  0  0
M  END
>  <minimizedAffinity>
-9.34633

>  <minimizedRMSD>
1.38679

$$$$
ChemDiv-G795-0375 MCULE-1977201504 MolPort-010-745-022 PubChem-53030372 ZINC000035447640


 29 31  0  0  0  0  0  0  0  0999 V2000
   17.3888  -10.0251   13.8049 C   0  0  0  0  0  0  0  0  0  0  0  0
   18.0060  -11.1479   14.3994 C   0  0  0  0  0  0  0  0  0  0  0  0
   18.8472  -12.0976   13.6166 C   0  0  0  0  0  0  0  0  0  0  0  0
   17.8960  -11.3495   15.7782 C   0  0  0  0  0  0  0  0  0  0  0  0
   17.1913  -10.4421   16.5715 C   0  0  0  0  0  0  0  0  0  0  0  0
   16.5996   -9.3109   15.9969 C   0  0  0  0  0  0  0  0  0  0  0  0
   16.7108   -9.1078   14.6149 C   0  0  0  0  0  0  0  0  0  0  0  0
   16.4064   -9.8993   11.4628 C   0  0  0  0  0  0  0  0  0  0  0  0
   15.2247  -10.0507   11.8761 O   0  0  0  0  0  0  0  0  0  0  0  0
   17.4790   -9.7510   12.4010 N   0  0  0  0  0  0  0  0  0  0  0  0
   18.3451   -9.4365   12.0545 H   0  0  0  0  0  0  0  0  0  0  0  0
   16.6594   -9.8312   10.0099 C   0  0  0  0  0  0  0  0  0  0  0  0
   17.6625   -9.0340    9.3977 C   0  0  0  0  0  0  0  0  0  0  0  0
   18.5796   -8.1834   10.0253 C   0  0  0  0  0  0  0  0  0  0  0  0
   19.5020   -7.4756    9.2352 C   0  0  0  0  0  0  0  0  0  0  0  0
   19.5038   -7.6201    7.8341 C   0  0  0  0  0  0  0  0  0  0  0  0
   18.5845   -8.4736    7.2059 C   0  0  0  0  0  0  0  0  0  0  0  0
   17.6863   -9.1583    8.0178 C   0  0  0  0  0  0  0  0  0  0  0  0
   16.4869  -10.2318    7.6158 S   0  0  0  0  0  0  0  0  0  0  0  0
   15.9080  -10.5692    9.1428 N   0  0  0  0  0  0  0  0  0  0  0  0
   15.8679   -8.3458   16.8358 C   0  0  0  0  0  0  0  0  0  0  0  0
   15.8809   -8.4811   18.2608 N   0  0  0  0  0  0  0  0  0  0  0  0
   15.2312   -7.3982   16.2986 O   0  0  0  0  0  0  0  0  0  0  0  0
   16.4074   -9.2107   18.6603 H   0  0  0  0  0  0  0  0  0  0  0  0
   15.1479   -7.5847   19.1451 C   0  0  0  0  0  0  0  0  0  0  0  0
   13.7328   -7.3668   18.6337 C   0  0  0  0  0  0  0  0  0  0  0  0
   12.7227   -7.8049   19.6771 C   0  0  0  0  0  0  0  0  0  0  0  0
   11.4400   -7.4562   19.2580 O   0  0  0  0  0  0  0  0  0  0  0  0
   10.9827   -8.5756   18.5642 C   0  0  0  0  0  0  0  0  0  0  0  0
 12 13  1  0  0  0
 13 14  2  0  0  0
 14 15  1  0  0  0
 15 16  2  0  0  0
 16 17  1  0  0  0
 17 18  2  0  0  0
 18 19  1  0  0  0
 19 20  1  0  0  0
 12  8  1  0  0  0
  8  9  2  0  0  0
  8 10  1  0  0  0
 10  1  1  0  0  0
  1  2  2  0  0  0
  2  3  1  0  0  0
  2  4  1  0  0  0
  4  5  2  0  0  0
  5  6  1  0  0  0
  6  7  2  0  0  0
  6 21  1  0  0  0
 21 22  1  0  0  0
 22 25  1  0  0  0
 25 26  1  0  0  0
 26 27  1  0  0  0
 27 28  1  0  0  0
 28 29  1  0  0  0
 21 23  2  0  0  0
 20 12  2  0  0  0
  7  1  1  0  0  0
 18 13  1  0  0  0
 10 11  1  0  0  0
 22 24  1  0  0  0
M  END
>  <minimizedAffinity>
-9.34195

>  <minimizedRMSD>
0.78653

$$$$
ChemDiv-G756-2316 MCULE-1990904938 MolPort-007-880-015 PubChem-46356748 ZINC000033068274 ZINC33068274


 36 39  0  0  0  0  0  0  0  0999 V2000
   17.7291  -10.3530   15.9438 C   0  0  0  0  0  0  0  0  0  0  0  0
   17.8287   -9.8611   14.6338 C   0  0  0  0  0  0  0  0  0  0  0  0
   18.1813  -10.7122   13.5743 C   0  0  0  0  0  0  0  0  0  0  0  0
   18.4342  -12.0624   13.8343 C   0  0  0  0  0  0  0  0  0  0  0  0
   18.3369  -12.5592   15.1365 C   0  0  0  0  0  0  0  0  0  0  0  0
   17.9853  -11.7063   16.1864 C   0  0  0  0  0  0  0  0  0  0  0  0
   15.9174   -8.1296   18.4824 N   0  0  0  0  0  0  0  0  0  0  0  0
   16.0778   -8.9573   17.3228 C   0  0  0  0  0  0  0  0  0  0  0  0
   15.1021   -9.1942   16.5607 O   0  0  0  0  0  0  0  0  0  0  0  0
   17.3714   -9.5093   17.0470 N   0  0  0  0  0  0  0  0  0  0  0  0
   16.7227   -7.9863   19.0301 H   0  0  0  0  0  0  0  0  0  0  0  0
   18.0901   -9.2858   17.6816 H   0  0  0  0  0  0  0  0  0  0  0  0
   12.3494   -6.2187   19.8017 C   0  0  0  0  0  0  0  0  0  0  0  0
   13.3431   -6.5616   20.7199 C   0  0  0  0  0  0  0  0  0  0  0  0
   14.5260   -7.1911   20.3137 C   0  0  0  0  0  0  0  0  0  0  0  0
   14.7163   -7.4854   18.9369 C   0  0  0  0  0  0  0  0  0  0  0  0
   13.7104   -7.1364   18.0223 C   0  0  0  0  0  0  0  0  0  0  0  0
   12.5392   -6.5103   18.4463 C   0  0  0  0  0  0  0  0  0  0  0  0
   10.7192   -4.3595   19.7326 C   0  0  0  0  0  0  0  0  0  0  0  0
   11.1885   -5.5917   20.2625 O   0  0  0  0  0  0  0  0  0  0  0  0
   15.4567   -7.4907   21.3217 O   0  0  0  0  0  0  0  0  0  0  0  0
   16.3606   -6.5648   21.9071 C   0  0  0  0  0  0  0  0  0  0  0  0
   18.2863  -10.2436   12.2623 O   0  0  0  0  0  0  0  0  0  0  0  0
   17.5044   -9.1636   11.7688 C   0  0  0  0  0  0  0  0  0  0  0  0
   17.6348   -9.0880   10.2899 C   0  0  0  0  0  0  0  0  0  0  0  0
   16.8344   -9.8867    9.4787 C   0  0  0  0  0  0  0  0  0  0  0  0
   16.9963   -9.8154    8.0960 C   0  0  0  0  0  0  0  0  0  0  0  0
   16.2688  -10.5357    7.3585 O   0  0  0  0  0  0  0  0  0  0  0  0
   17.9333   -8.9756    7.5560 N   0  0  0  0  0  0  0  0  0  0  0  0
   18.0910   -8.9067    6.2005 C   0  0  0  0  0  0  0  0  0  0  0  0
   19.0438   -8.0579    5.6350 C   0  0  0  0  0  0  0  0  0  0  0  0
   19.2346   -7.9799    3.8973 Cl  0  0  0  0  0  0  0  0  0  0  0  0
   19.8418   -7.2739    6.4654 C   0  0  0  0  0  0  0  0  0  0  0  0
   19.6805   -7.3448    7.8479 C   0  0  0  0  0  0  0  0  0  0  0  0
   18.7177   -8.2032    8.3845 C   0  0  0  0  0  0  0  0  0  0  0  0
   18.5627   -8.2705    9.7320 N   0  0  0  0  0  0  0  0  0  0  0  0
 19 20  1  0  0  0
 20 13  1  0  0  0
 13 14  2  0  0  0
 14 15  1  0  0  0
 15 21  1  0  0  0
 15 16  2  0  0  0
 21 22  1  0  0  0
 16  7  1  0  0  0
 16 17  1  0  0  0
  7  8  1  0  0  0
  8  9  2  0  0  0
  8 10  1  0  0  0
 10  1  1  0  0  0
  1  2  2  0  0  0
  2  3  1  0  0  0
  3 23  1  0  0  0
  3  4  2  0  0  0
 23 24  1  0  0  0
 24 25  1  0  0  0
 25 26  2  0  0  0
 26 27  1  0  0  0
 27 28  2  0  0  0
 27 29  1  0  0  0
 29 30  1  0  0  0
 30 31  2  0  0  0
 31 32  1  0  0  0
 31 33  1  0  0  0
 33 34  2  0  0  0
 34 35  1  0  0  0
 35 36  2  0  0  0
 35 29  1  0  0  0
 36 25  1  0  0  0
  4  5  1  0  0  0
  5  6  2  0  0  0
  6  1  1  0  0  0
 17 18  2  0  0  0
 18 13  1  0  0  0
  7 11  1  0  0  0
 10 12  1  0  0  0
M  END
>  <minimizedAffinity>
-9.33393

>  <minimizedRMSD>
1.42301

$$$$
ChemDiv-G357-1266 MCULE-8439924209 MolPort-007-847-468 PubChem-20953096 ZINC000015771980


 33 37  0  0  0  0  0  0  0  0999 V2000
   17.0729  -10.0392   12.7427 C   0  0  0  0  0  0  0  0  0  0  0  0
   17.8951  -10.9685   12.5106 O   0  0  0  0  0  0  0  0  0  0  0  0
   16.7830   -9.6399   14.1294 C   0  0  0  0  0  0  0  0  0  0  0  0
   17.0383  -10.5171   15.1926 C   0  0  0  0  0  0  0  0  0  0  0  0
   16.7651  -10.1304   16.5076 C   0  0  0  0  0  0  0  0  0  0  0  0
   16.2337   -8.8653   16.7780 C   0  0  0  0  0  0  0  0  0  0  0  0
   15.9775   -7.9876   15.7142 C   0  0  0  0  0  0  0  0  0  0  0  0
   16.2508   -8.3726   14.3989 C   0  0  0  0  0  0  0  0  0  0  0  0
   15.9679   -8.5056   18.1406 N   0  0  0  0  0  0  0  0  0  0  0  0
   14.8607   -7.7346   18.6241 C   0  0  0  0  0  0  0  0  0  0  0  0
   13.9803   -7.2922   17.8360 O   0  0  0  0  0  0  0  0  0  0  0  0
   16.6131   -8.8212   18.8139 H   0  0  0  0  0  0  0  0  0  0  0  0
   14.7602   -7.4574   20.0874 C   0  0  0  0  0  0  0  0  0  0  0  0
   13.5731   -6.5393   20.3788 C   0  0  0  0  0  0  0  0  0  0  0  0
   13.4750   -6.2646   21.8769 C   0  0  0  0  0  0  0  0  0  0  0  0
   14.7712   -5.6373   22.3844 C   0  0  0  0  0  0  0  0  0  0  0  0
   15.9504   -6.5650   22.1033 C   0  0  0  0  0  0  0  0  0  0  0  0
   16.0591   -6.8396   20.6059 C   0  0  0  0  0  0  0  0  0  0  0  0
   16.4336   -9.3855   11.6869 O   0  0  0  0  0  0  0  0  0  0  0  0
   16.3404   -9.9624   10.3925 C   0  0  0  0  0  0  0  0  0  0  0  0
   19.1682   -8.1907    7.8147 N   0  0  0  0  0  0  0  0  0  0  0  0
   19.4207   -8.1643    9.1501 C   0  0  0  0  0  0  0  0  0  0  0  0
   20.4712   -7.6339    9.5995 O   0  0  0  0  0  0  0  0  0  0  0  0
   18.4919   -8.7399   10.0241 C   0  0  0  0  0  0  0  0  0  0  0  0
   17.3289   -9.3177    9.4882 C   0  0  0  0  0  0  0  0  0  0  0  0
   17.1226   -9.3274    8.1406 N   0  0  0  0  0  0  0  0  0  0  0  0
   18.0463   -8.7604    7.3269 C   0  0  0  0  0  0  0  0  0  0  0  0
   17.9732   -8.6607    5.6521 S   0  0  0  0  0  0  0  0  0  0  0  0
   19.4722   -7.8601    5.6301 C   0  0  0  0  0  0  0  0  0  0  0  0
   19.9668   -7.6798    6.8805 N   0  0  0  0  0  0  0  0  0  0  0  0
   20.1382   -7.3408    4.3984 C   0  0  0  0  0  0  0  0  0  0  0  0
   20.5745   -5.9031    4.6134 C   0  0  0  0  0  0  0  0  0  0  0  0
   21.5908   -7.0193    4.6965 C   0  0  0  0  0  0  0  0  0  0  0  0
 21 22  1  0  0  0
 22 23  2  0  0  0
 22 24  1  0  0  0
 24 25  2  0  0  0
 25 26  1  0  0  0
 26 27  2  0  0  0
 27 28  1  0  0  0
 28 29  1  0  0  0
 29 31  1  0  0  0
 31 32  1  0  0  0
 32 33  1  0  0  0
 29 30  2  0  0  0
 25 20  1  0  0  0
 20 19  1  0  0  0
 19  1  1  0  0  0
  1  2  2  0  0  0
  1  3  1  0  0  0
  3  4  2  0  0  0
  4  5  1  0  0  0
  5  6  2  0  0  0
  6  7  1  0  0  0
  7  8  2  0  0  0
  6  9  1  0  0  0
  9 10  1  0  0  0
 10 13  1  0  0  0
 13 14  1  0  0  0
 14 15  1  0  0  0
 15 16  1  0  0  0
 16 17  1  0  0  0
 17 18  1  0  0  0
 10 11  2  0  0  0
 27 21  1  0  0  0
 33 31  1  0  0  0
  8  3  1  0  0  0
 18 13  1  0  0  0
 30 21  1  0  0  0
  9 12  1  0  0  0
M  END
>  <minimizedAffinity>
-9.32433

>  <minimizedRMSD>
2.18803

$$$$
ChemDiv-G756-0383 MCULE-2230957516 MolPort-007-879-121 PubChem-46355988


 33 36  0  0  0  0  0  0  0  0999 V2000
   16.7920   -9.9182   16.7154 C   0  0  0  0  0  0  0  0  0  0  0  0
   17.3421  -11.1540   17.0551 C   0  0  0  0  0  0  0  0  0  0  0  0
   17.9476  -11.9477   16.0802 C   0  0  0  0  0  0  0  0  0  0  0  0
   18.0129  -11.5197   14.7509 C   0  0  0  0  0  0  0  0  0  0  0  0
   18.6858  -12.4294   13.7814 C   0  0  0  0  0  0  0  0  0  0  0  0
   17.4544  -10.2644   14.3900 C   0  0  0  0  0  0  0  0  0  0  0  0
   16.8540   -9.4842   15.3850 C   0  0  0  0  0  0  0  0  0  0  0  0
   15.2997   -8.0106   17.5601 C   0  0  0  0  0  0  0  0  0  0  0  0
   14.9626   -7.6318   16.4072 O   0  0  0  0  0  0  0  0  0  0  0  0
   16.1820   -9.1277   17.7442 N   0  0  0  0  0  0  0  0  0  0  0  0
   16.3899   -9.3770   18.6736 H   0  0  0  0  0  0  0  0  0  0  0  0
   14.7593   -7.2788   18.7506 C   0  0  0  0  0  0  0  0  0  0  0  0
   13.2654   -7.1687   18.7011 C   0  0  0  0  0  0  0  0  0  0  0  0
   12.6791   -5.8998   18.6290 C   0  0  0  0  0  0  0  0  0  0  0  0
   11.2878   -5.7686   18.5763 C   0  0  0  0  0  0  0  0  0  0  0  0
   10.4764   -6.9068   18.5943 C   0  0  0  0  0  0  0  0  0  0  0  0
   11.0554   -8.1772   18.6651 C   0  0  0  0  0  0  0  0  0  0  0  0
   12.4461   -8.3093   18.7175 C   0  0  0  0  0  0  0  0  0  0  0  0
   15.0880   -6.8973   21.1994 C   0  0  0  0  0  0  0  0  0  0  0  0
   15.2326   -7.8932   20.0633 C   0  0  0  0  0  0  0  0  0  0  0  0
   17.4572   -9.7324   13.0904 O   0  0  0  0  0  0  0  0  0  0  0  0
   18.6117   -9.3384   12.3627 C   0  0  0  0  0  0  0  0  0  0  0  0
   18.2788   -9.2354   10.9175 C   0  0  0  0  0  0  0  0  0  0  0  0
   17.1198   -9.8285   10.4257 C   0  0  0  0  0  0  0  0  0  0  0  0
   16.8164   -9.6907    9.0723 C   0  0  0  0  0  0  0  0  0  0  0  0
   15.7675  -10.2307    8.6240 O   0  0  0  0  0  0  0  0  0  0  0  0
   17.6491   -8.9784    8.2504 N   0  0  0  0  0  0  0  0  0  0  0  0
   17.3517   -8.8454    6.9232 C   0  0  0  0  0  0  0  0  0  0  0  0
   18.1888   -8.1211    6.0720 C   0  0  0  0  0  0  0  0  0  0  0  0
   19.3402   -7.5283    6.5876 C   0  0  0  0  0  0  0  0  0  0  0  0
   19.6428   -7.6636    7.9413 C   0  0  0  0  0  0  0  0  0  0  0  0
   18.7855   -8.3950    8.7672 C   0  0  0  0  0  0  0  0  0  0  0  0
   19.0831   -8.5266   10.0856 N   0  0  0  0  0  0  0  0  0  0  0  0
 19 20  1  0  0  0
 12 20  1  0  0  0
 12  8  1  0  0  0
 12 13  1  0  0  0
  8  9  2  0  0  0
  8 10  1  0  0  0
 10  1  1  0  0  0
  1  2  2  0  0  0
  2  3  1  0  0  0
  3  4  2  0  0  0
  4  5  1  0  0  0
  4  6  1  0  0  0
  6 21  1  0  0  0
  6  7  2  0  0  0
 21 22  1  0  0  0
 22 23  1  0  0  0
 23 24  2  0  0  0
 24 25  1  0  0  0
 25 26  2  0  0  0
 25 27  1  0  0  0
 27 28  1  0  0  0
 28 29  2  0  0  0
 29 30  1  0  0  0
 30 31  2  0  0  0
 31 32  1  0  0  0
 32 33  2  0  0  0
 32 27  1  0  0  0
 33 23  1  0  0  0
  7  1  1  0  0  0
 13 14  2  0  0  0
 14 15  1  0  0  0
 15 16  2  0  0  0
 16 17  1  0  0  0
 17 18  2  0  0  0
 18 13  1  0  0  0
 10 11  1  0  0  0
M  END
>  <minimizedAffinity>
-9.31890

>  <minimizedRMSD>
1.17090

$$$$
ChemDiv-D439-4148 MCULE-3114467303 MolPort-007-706-780 PubChem-46268362 ZINC000021797136 ZINC21797136


 36 39  0  0  0  0  0  0  0  0999 V2000
   16.7940   -9.8738   16.6113 C   0  0  0  0  0  0  0  0  0  0  0  0
   17.5425  -11.0278   16.8447 C   0  0  0  0  0  0  0  0  0  0  0  0
   18.1354  -11.7103   15.7820 C   0  0  0  0  0  0  0  0  0  0  0  0
   17.9926  -11.2499   14.4695 C   0  0  0  0  0  0  0  0  0  0  0  0
   18.6522  -12.0482   13.3982 C   0  0  0  0  0  0  0  0  0  0  0  0
   17.2366  -10.0743   14.2172 C   0  0  0  0  0  0  0  0  0  0  0  0
   16.6483   -9.4074   15.2984 C   0  0  0  0  0  0  0  0  0  0  0  0
   15.3543   -8.0413   17.6772 C   0  0  0  0  0  0  0  0  0  0  0  0
   15.0061   -7.5332   16.5788 O   0  0  0  0  0  0  0  0  0  0  0  0
   16.2014   -9.1963   17.7278 N   0  0  0  0  0  0  0  0  0  0  0  0
   16.3965   -9.5622   18.6208 H   0  0  0  0  0  0  0  0  0  0  0  0
   14.8413   -7.4595   18.9450 C   0  0  0  0  0  0  0  0  0  0  0  0
   13.7566   -6.5856   18.6634 O   0  0  0  0  0  0  0  0  0  0  0  0
   11.4451   -4.8673   21.7253 C   0  0  0  0  0  0  0  0  0  0  0  0
   12.4029   -5.8465   22.0184 C   0  0  0  0  0  0  0  0  0  0  0  0
   13.1669   -6.4092   20.9918 C   0  0  0  0  0  0  0  0  0  0  0  0
   12.9782   -6.0028   19.6666 C   0  0  0  0  0  0  0  0  0  0  0  0
   12.0120   -5.0257   19.3755 C   0  0  0  0  0  0  0  0  0  0  0  0
   11.2477   -4.4628   20.4015 C   0  0  0  0  0  0  0  0  0  0  0  0
   11.2918   -4.4331   24.1563 C   0  0  0  0  0  0  0  0  0  0  0  0
   10.6111   -4.2738   22.8092 C   0  0  0  0  0  0  0  0  0  0  0  0
   17.0267   -9.5170   12.9457 O   0  0  0  0  0  0  0  0  0  0  0  0
   16.5115  -10.2086   11.8169 C   0  0  0  0  0  0  0  0  0  0  0  0
   17.1242   -9.6635   10.5772 C   0  0  0  0  0  0  0  0  0  0  0  0
   16.5117   -9.9076    9.3314 C   0  0  0  0  0  0  0  0  0  0  0  0
   17.0925   -9.3638    8.1790 C   0  0  0  0  0  0  0  0  0  0  0  0
   16.5791   -9.5661    7.0468 O   0  0  0  0  0  0  0  0  0  0  0  0
   18.2208   -8.6188    8.3267 N   0  0  0  0  0  0  0  0  0  0  0  0
   18.9599   -7.9988    7.4251 N   0  0  0  0  0  0  0  0  0  0  0  0
   19.9754   -7.3992    8.0950 C   0  0  0  0  0  0  0  0  0  0  0  0
   19.8901   -7.6319    9.4336 N   0  0  0  0  0  0  0  0  0  0  0  0
   18.7821   -8.3939    9.5161 C   0  0  0  0  0  0  0  0  0  0  0  0
   18.2547   -8.9001   10.6575 N   0  0  0  0  0  0  0  0  0  0  0  0
   18.7219   -7.9765    5.9835 C   0  0  0  0  0  0  0  0  0  0  0  0
   19.3643   -6.7530    5.3564 C   0  0  0  0  0  0  0  0  0  0  0  0
   19.2624   -9.2383    5.3357 C   0  0  0  0  0  0  0  0  0  0  0  0
 20 21  1  0  0  0
 21 14  1  0  0  0
 14 15  2  0  0  0
 15 16  1  0  0  0
 16 17  2  0  0  0
 17 13  1  0  0  0
 17 18  1  0  0  0
 13 12  1  0  0  0
 12  8  1  0  0  0
  8  9  2  0  0  0
  8 10  1  0  0  0
 10  1  1  0  0  0
  1  2  2  0  0  0
  2  3  1  0  0  0
  3  4  2  0  0  0
  4  5  1  0  0  0
  4  6  1  0  0  0
  6 22  1  0  0  0
  6  7  2  0  0  0
 22 23  1  0  0  0
 23 24  1  0  0  0
 24 25  2  0  0  0
 25 26  1  0  0  0
 26 27  2  0  0  0
 26 28  1  0  0  0
 28 29  1  0  0  0
 29 30  1  0  0  0
 29 34  1  0  0  0
 30 31  2  0  0  0
 31 32  1  0  0  0
 32 33  2  0  0  0
 32 28  1  0  0  0
 33 24  1  0  0  0
 34 35  1  0  0  0
 34 36  1  0  0  0
  7  1  1  0  0  0
 18 19  2  0  0  0
 19 14  1  0  0  0
 10 11  1  0  0  0
M  END
>  <minimizedAffinity>
-9.30028

>  <minimizedRMSD>
1.30321

$$$$
ChemDiv-G756-2295 MCULE-1225452474 MolPort-007-879-999 PubChem-46356732 ZINC000033068258 ZINC33068258


 32 35  0  0  0  0  0  0  0  0999 V2000
   17.7490  -10.4151   14.1673 C   0  0  0  0  0  0  0  0  0  0  0  0
   18.1872  -11.6637   14.6183 C   0  0  0  0  0  0  0  0  0  0  0  0
   18.1505  -11.9735   15.9803 C   0  0  0  0  0  0  0  0  0  0  0  0
   17.6742  -11.0341   16.8989 C   0  0  0  0  0  0  0  0  0  0  0  0
   17.2315   -9.7806   16.4647 C   0  0  0  0  0  0  0  0  0  0  0  0
   17.2716   -9.4764   15.0958 C   0  0  0  0  0  0  0  0  0  0  0  0
   16.7502   -8.8429   17.4374 N   0  0  0  0  0  0  0  0  0  0  0  0
   15.3959   -8.4092   17.6165 C   0  0  0  0  0  0  0  0  0  0  0  0
   14.4754   -8.8546   16.8794 O   0  0  0  0  0  0  0  0  0  0  0  0
   15.1091   -7.4592   18.6507 N   0  0  0  0  0  0  0  0  0  0  0  0
   17.4206   -8.4564   18.0461 H   0  0  0  0  0  0  0  0  0  0  0  0
   15.8731   -7.1516   19.1901 H   0  0  0  0  0  0  0  0  0  0  0  0
   13.8267   -6.9095   18.9830 C   0  0  0  0  0  0  0  0  0  0  0  0
   12.8347   -6.6956   18.0129 C   0  0  0  0  0  0  0  0  0  0  0  0
   11.5964   -6.1572   18.3745 C   0  0  0  0  0  0  0  0  0  0  0  0
   11.3409   -5.8291   19.7086 C   0  0  0  0  0  0  0  0  0  0  0  0
   12.3237   -6.0395   20.6797 C   0  0  0  0  0  0  0  0  0  0  0  0
   13.5619   -6.5776   20.3165 C   0  0  0  0  0  0  0  0  0  0  0  0
   17.7976  -10.1332   12.7997 O   0  0  0  0  0  0  0  0  0  0  0  0
   16.8114   -9.3469   12.1438 C   0  0  0  0  0  0  0  0  0  0  0  0
   19.4350   -8.0741    4.5376 Cl  0  0  0  0  0  0  0  0  0  0  0  0
   19.0355   -8.1615    6.2391 C   0  0  0  0  0  0  0  0  0  0  0  0
   18.0692   -9.0626    6.6891 C   0  0  0  0  0  0  0  0  0  0  0  0
   17.7494   -9.1397    8.0153 N   0  0  0  0  0  0  0  0  0  0  0  0
   16.8014  -10.0310    8.4420 C   0  0  0  0  0  0  0  0  0  0  0  0
   16.2122  -10.7918    7.6257 O   0  0  0  0  0  0  0  0  0  0  0  0
   16.4737  -10.1099    9.7945 C   0  0  0  0  0  0  0  0  0  0  0  0
   17.1214   -9.2665   10.6921 C   0  0  0  0  0  0  0  0  0  0  0  0
   18.0640   -8.3983   10.2468 N   0  0  0  0  0  0  0  0  0  0  0  0
   18.3809   -8.3236    8.9283 C   0  0  0  0  0  0  0  0  0  0  0  0
   19.3534   -7.4130    8.5082 C   0  0  0  0  0  0  0  0  0  0  0  0
   19.6802   -7.3340    7.1558 C   0  0  0  0  0  0  0  0  0  0  0  0
 21 22  1  0  0  0
 22 23  2  0  0  0
 23 24  1  0  0  0
 24 25  1  0  0  0
 25 26  2  0  0  0
 25 27  1  0  0  0
 27 28  2  0  0  0
 28 20  1  0  0  0
 28 29  1  0  0  0
 20 19  1  0  0  0
 19  1  1  0  0  0
  1  2  2  0  0  0
  2  3  1  0  0  0
  3  4  2  0  0  0
  4  5  1  0  0  0
  5  7  1  0  0  0
  5  6  2  0  0  0
  7  8  1  0  0  0
  8  9  2  0  0  0
  8 10  1  0  0  0
 10 13  1  0  0  0
 13 14  2  0  0  0
 14 15  1  0  0  0
 15 16  2  0  0  0
 16 17  1  0  0  0
 17 18  2  0  0  0
 18 13  1  0  0  0
  6  1  1  0  0  0
 29 30  2  0  0  0
 30 31  1  0  0  0
 30 24  1  0  0  0
 31 32  2  0  0  0
 32 22  1  0  0  0
  7 11  1  0  0  0
 10 12  1  0  0  0
M  END
>  <minimizedAffinity>
-9.29960

>  <minimizedRMSD>
0.94429

$$$$
ChemDiv-G756-1018 MCULE-9012677820 MolPort-010-744-708 PubChem-50802609 ZINC000033268629 ZINC33268629


 34 37  0  0  0  0  0  0  0  0999 V2000
   16.8262  -10.0150   16.6644 C   0  0  0  0  0  0  0  0  0  0  0  0
   16.7919   -9.6042   15.3231 C   0  0  0  0  0  0  0  0  0  0  0  0
   17.4479  -10.3424   14.3331 C   0  0  0  0  0  0  0  0  0  0  0  0
   18.1467  -11.5061   14.6910 C   0  0  0  0  0  0  0  0  0  0  0  0
   18.1849  -11.9209   16.0244 C   0  0  0  0  0  0  0  0  0  0  0  0
   17.5262  -11.1766   17.0065 C   0  0  0  0  0  0  0  0  0  0  0  0
   15.3327   -8.1188   17.5389 C   0  0  0  0  0  0  0  0  0  0  0  0
   15.1174   -7.6386   16.3927 O   0  0  0  0  0  0  0  0  0  0  0  0
   16.1634   -9.2788   17.7013 N   0  0  0  0  0  0  0  0  0  0  0  0
   16.2914   -9.6031   18.6220 H   0  0  0  0  0  0  0  0  0  0  0  0
   13.5667   -6.2685   20.9894 C   0  0  0  0  0  0  0  0  0  0  0  0
   14.7966   -6.9629   21.1088 C   0  0  0  0  0  0  0  0  0  0  0  0
   15.3587   -7.5617   19.9683 C   0  0  0  0  0  0  0  0  0  0  0  0
   14.7266   -7.4839   18.7226 C   0  0  0  0  0  0  0  0  0  0  0  0
   13.5135   -6.7964   18.6163 C   0  0  0  0  0  0  0  0  0  0  0  0
   12.9427   -6.1965   19.7392 C   0  0  0  0  0  0  0  0  0  0  0  0
   13.1600   -4.3005   22.4815 C   0  0  0  0  0  0  0  0  0  0  0  0
   12.9203   -5.6361   22.0622 O   0  0  0  0  0  0  0  0  0  0  0  0
   15.4486   -7.0549   22.3439 O   0  0  0  0  0  0  0  0  0  0  0  0
   16.7095   -6.4509   22.6009 C   0  0  0  0  0  0  0  0  0  0  0  0
   17.3898   -9.8997   13.0092 O   0  0  0  0  0  0  0  0  0  0  0  0
   18.5307   -9.4217   12.3088 C   0  0  0  0  0  0  0  0  0  0  0  0
   18.2187   -9.3191   10.8588 C   0  0  0  0  0  0  0  0  0  0  0  0
   17.0411   -9.8677   10.3599 C   0  0  0  0  0  0  0  0  0  0  0  0
   16.7600   -9.7334    9.0011 C   0  0  0  0  0  0  0  0  0  0  0  0
   15.6950  -10.2339    8.5458 O   0  0  0  0  0  0  0  0  0  0  0  0
   17.6309   -9.0658    8.1818 N   0  0  0  0  0  0  0  0  0  0  0  0
   17.3541   -8.9347    6.8499 C   0  0  0  0  0  0  0  0  0  0  0  0
   18.2296   -8.2546    6.0013 C   0  0  0  0  0  0  0  0  0  0  0  0
   19.3980   -7.7048    6.5246 C   0  0  0  0  0  0  0  0  0  0  0  0
   20.3413   -6.9772    5.6365 C   0  0  0  0  0  0  0  0  0  0  0  0
   19.6801   -7.8385    7.8828 C   0  0  0  0  0  0  0  0  0  0  0  0
   18.7847   -8.5254    8.7058 C   0  0  0  0  0  0  0  0  0  0  0  0
   19.0613   -8.6544   10.0291 N   0  0  0  0  0  0  0  0  0  0  0  0
 17 18  1  0  0  0
 18 11  1  0  0  0
 11 12  2  0  0  0
 12 19  1  0  0  0
 12 13  1  0  0  0
 19 20  1  0  0  0
 13 14  2  0  0  0
 14 15  1  0  0  0
 14  7  1  0  0  0
 15 16  2  0  0  0
 16 11  1  0  0  0
  7  8  2  0  0  0
  7  9  1  0  0  0
  9  1  1  0  0  0
  1  2  2  0  0  0
  2  3  1  0  0  0
  3 21  1  0  0  0
  3  4  2  0  0  0
 21 22  1  0  0  0
 22 23  1  0  0  0
 23 24  2  0  0  0
 24 25  1  0  0  0
 25 26  2  0  0  0
 25 27  1  0  0  0
 27 28  1  0  0  0
 28 29  2  0  0  0
 29 30  1  0  0  0
 30 31  1  0  0  0
 30 32  2  0  0  0
 32 33  1  0  0  0
 33 34  2  0  0  0
 33 27  1  0  0  0
 34 23  1  0  0  0
  4  5  1  0  0  0
  5  6  2  0  0  0
  6  1  1  0  0  0
  9 10  1  0  0  0
M  END
>  <minimizedAffinity>
-9.29578

>  <minimizedRMSD>
1.04448

$$$$
ChemDiv-G756-1022 MCULE-8992247069 MolPort-007-879-549 PubChem-46356358 ZINC000033068016 ZINC33068016


 31 34  0  0  0  0  0  0  0  0999 V2000
   17.4521  -10.3008   14.3741 C   0  0  0  0  0  0  0  0  0  0  0  0
   18.1734  -11.4507   14.7310 C   0  0  0  0  0  0  0  0  0  0  0  0
   18.2089  -11.8732   16.0621 C   0  0  0  0  0  0  0  0  0  0  0  0
   17.5201  -11.1534   17.0419 C   0  0  0  0  0  0  0  0  0  0  0  0
   16.7933  -10.0091   16.6997 C   0  0  0  0  0  0  0  0  0  0  0  0
   16.7672   -9.5869   15.3619 C   0  0  0  0  0  0  0  0  0  0  0  0
   16.1078   -9.2924   17.7351 N   0  0  0  0  0  0  0  0  0  0  0  0
   15.3105   -8.1098   17.5790 C   0  0  0  0  0  0  0  0  0  0  0  0
   15.1085   -7.6183   16.4347 O   0  0  0  0  0  0  0  0  0  0  0  0
   16.1932   -9.6491   18.6487 H   0  0  0  0  0  0  0  0  0  0  0  0
   14.7119   -7.4722   18.7647 C   0  0  0  0  0  0  0  0  0  0  0  0
   15.3405   -7.5682   20.0154 C   0  0  0  0  0  0  0  0  0  0  0  0
   14.7697   -6.9696   21.1423 C   0  0  0  0  0  0  0  0  0  0  0  0
   15.3822   -7.0666   22.3460 F   0  0  0  0  0  0  0  0  0  0  0  0
   13.5675   -6.2689   21.0264 C   0  0  0  0  0  0  0  0  0  0  0  0
   12.9357   -6.1672   19.7840 C   0  0  0  0  0  0  0  0  0  0  0  0
   13.5052   -6.7671   18.6575 C   0  0  0  0  0  0  0  0  0  0  0  0
   17.4021   -9.8461   13.0537 O   0  0  0  0  0  0  0  0  0  0  0  0
   18.5665   -9.4778   12.3248 C   0  0  0  0  0  0  0  0  0  0  0  0
   20.2988   -6.9539    5.6622 C   0  0  0  0  0  0  0  0  0  0  0  0
   19.3601   -7.6794    6.5546 C   0  0  0  0  0  0  0  0  0  0  0  0
   19.6626   -7.8405    7.9055 C   0  0  0  0  0  0  0  0  0  0  0  0
   18.7716   -8.5258    8.7328 C   0  0  0  0  0  0  0  0  0  0  0  0
   19.0680   -8.6799   10.0490 N   0  0  0  0  0  0  0  0  0  0  0  0
   18.2310   -9.3466   10.8820 C   0  0  0  0  0  0  0  0  0  0  0  0
   17.0408   -9.8761   10.3932 C   0  0  0  0  0  0  0  0  0  0  0  0
   16.7395   -9.7164    9.0415 C   0  0  0  0  0  0  0  0  0  0  0  0
   15.6615  -10.2008    8.5957 O   0  0  0  0  0  0  0  0  0  0  0  0
   17.6028   -9.0435    8.2196 N   0  0  0  0  0  0  0  0  0  0  0  0
   17.3048   -8.8853    6.8952 C   0  0  0  0  0  0  0  0  0  0  0  0
   18.1743   -8.2032    6.0431 C   0  0  0  0  0  0  0  0  0  0  0  0
 20 21  1  0  0  0
 21 22  2  0  0  0
 22 23  1  0  0  0
 23 24  2  0  0  0
 24 25  1  0  0  0
 25 19  1  0  0  0
 25 26  2  0  0  0
 19 18  1  0  0  0
 18  1  1  0  0  0
  1  2  2  0  0  0
  2  3  1  0  0  0
  3  4  2  0  0  0
  4  5  1  0  0  0
  5  7  1  0  0  0
  5  6  2  0  0  0
  7  8  1  0  0  0
  8  9  2  0  0  0
  8 11  1  0  0  0
 11 12  2  0  0  0
 12 13  1  0  0  0
 13 14  1  0  0  0
 13 15  2  0  0  0
 15 16  1  0  0  0
 16 17  2  0  0  0
 17 11  1  0  0  0
  6  1  1  0  0  0
 26 27  1  0  0  0
 27 28  2  0  0  0
 27 29  1  0  0  0
 29 30  1  0  0  0
 29 23  1  0  0  0
 30 31  2  0  0  0
 31 21  1  0  0  0
  7 10  1  0  0  0
M  END
>  <minimizedAffinity>
-9.28199

>  <minimizedRMSD>
1.03453

$$$$
ChemDiv-G756-0133 MCULE-4246941736 MolPort-010-686-757 PubChem-50802124 ZINC000033268509 ZINC33268509


 30 33  0  0  0  0  0  0  0  0999 V2000
   16.7551   -9.9608   16.8359 C   0  0  0  0  0  0  0  0  0  0  0  0
   16.7602   -9.5569   15.4920 C   0  0  0  0  0  0  0  0  0  0  0  0
   17.4539  -10.2941   14.5273 C   0  0  0  0  0  0  0  0  0  0  0  0
   18.1508  -11.4499   14.9133 C   0  0  0  0  0  0  0  0  0  0  0  0
   18.1500  -11.8578   16.2493 C   0  0  0  0  0  0  0  0  0  0  0  0
   17.4538  -11.1145   17.2061 C   0  0  0  0  0  0  0  0  0  0  0  0
   15.2550   -8.0460   17.6606 C   0  0  0  0  0  0  0  0  0  0  0  0
   15.1133   -7.5493   16.5105 O   0  0  0  0  0  0  0  0  0  0  0  0
   16.0531   -9.2256   17.8476 N   0  0  0  0  0  0  0  0  0  0  0  0
   16.1260   -9.5657   18.7686 H   0  0  0  0  0  0  0  0  0  0  0  0
   12.6610   -6.7384   17.5614 F   0  0  0  0  0  0  0  0  0  0  0  0
   13.3370   -6.7921   18.7361 C   0  0  0  0  0  0  0  0  0  0  0  0
   14.5997   -7.4174   18.8296 C   0  0  0  0  0  0  0  0  0  0  0  0
   15.2524   -7.4423   20.0721 C   0  0  0  0  0  0  0  0  0  0  0  0
   14.6670   -6.8602   21.1988 C   0  0  0  0  0  0  0  0  0  0  0  0
   13.4188   -6.2446   21.0967 C   0  0  0  0  0  0  0  0  0  0  0  0
   12.7565   -6.2112   19.8682 C   0  0  0  0  0  0  0  0  0  0  0  0
   17.4344   -9.8584   13.2000 O   0  0  0  0  0  0  0  0  0  0  0  0
   18.5916   -9.8593   12.3745 C   0  0  0  0  0  0  0  0  0  0  0  0
   18.2077   -9.5261   10.9774 C   0  0  0  0  0  0  0  0  0  0  0  0
   16.9873   -9.9602   10.4686 C   0  0  0  0  0  0  0  0  0  0  0  0
   16.6402   -9.6104    9.1646 C   0  0  0  0  0  0  0  0  0  0  0  0
   15.5362  -10.0068    8.6998 O   0  0  0  0  0  0  0  0  0  0  0  0
   17.4894   -8.8474    8.4084 N   0  0  0  0  0  0  0  0  0  0  0  0
   17.1480   -8.5050    7.1302 C   0  0  0  0  0  0  0  0  0  0  0  0
   18.0007   -7.7253    6.3467 C   0  0  0  0  0  0  0  0  0  0  0  0
   19.2133   -7.2931    6.8800 C   0  0  0  0  0  0  0  0  0  0  0  0
   19.5613   -7.6423    8.1835 C   0  0  0  0  0  0  0  0  0  0  0  0
   18.6870   -8.4245    8.9420 C   0  0  0  0  0  0  0  0  0  0  0  0
   19.0281   -8.7634   10.2121 N   0  0  0  0  0  0  0  0  0  0  0  0
 11 12  1  0  0  0
 12 13  2  0  0  0
 13 14  1  0  0  0
 13  7  1  0  0  0
 14 15  2  0  0  0
 15 16  1  0  0  0
 16 17  2  0  0  0
 17 12  1  0  0  0
  7  8  2  0  0  0
  7  9  1  0  0  0
  9  1  1  0  0  0
  1  2  2  0  0  0
  2  3  1  0  0  0
  3 18  1  0  0  0
  3  4  2  0  0  0
 18 19  1  0  0  0
 19 20  1  0  0  0
 20 21  2  0  0  0
 21 22  1  0  0  0
 22 23  2  0  0  0
 22 24  1  0  0  0
 24 25  1  0  0  0
 25 26  2  0  0  0
 26 27  1  0  0  0
 27 28  2  0  0  0
 28 29  1  0  0  0
 29 30  2  0  0  0
 29 24  1  0  0  0
 30 20  1  0  0  0
  4  5  1  0  0  0
  5  6  2  0  0  0
  6  1  1  0  0  0
  9 10  1  0  0  0
M  END
>  <minimizedAffinity>
-9.26422

>  <minimizedRMSD>
0.92530

$$$$
ChemDiv-G357-3063 MCULE-8584487109 MolPort-007-847-922 PubChem-20953181 ZINC000015772218 ZINC15772218


 33 36  0  0  0  0  0  0  0  0999 V2000
   17.3465  -10.0663   14.2463 C   0  0  0  0  0  0  0  0  0  0  0  0
   16.6460   -8.8558   14.3229 C   0  0  0  0  0  0  0  0  0  0  0  0
   16.2368   -8.3549   15.5617 C   0  0  0  0  0  0  0  0  0  0  0  0
   16.5236   -9.0580   16.7408 C   0  0  0  0  0  0  0  0  0  0  0  0
   17.2222  -10.2669   16.6634 C   0  0  0  0  0  0  0  0  0  0  0  0
   17.6321  -10.7692   15.4250 C   0  0  0  0  0  0  0  0  0  0  0  0
   16.1171   -8.5780   18.0293 N   0  0  0  0  0  0  0  0  0  0  0  0
   15.0616   -7.6483   18.3053 C   0  0  0  0  0  0  0  0  0  0  0  0
   14.3854   -7.1325   17.3760 O   0  0  0  0  0  0  0  0  0  0  0  0
   16.6149   -8.9229   18.8054 H   0  0  0  0  0  0  0  0  0  0  0  0
   14.7445   -7.3030   19.7203 C   0  0  0  0  0  0  0  0  0  0  0  0
   13.3842   -6.6168   19.8137 C   0  0  0  0  0  0  0  0  0  0  0  0
   12.2438   -7.4141   19.2448 C   0  0  0  0  0  0  0  0  0  0  0  0
   11.4644   -6.8314   18.2392 C   0  0  0  0  0  0  0  0  0  0  0  0
   10.3870   -7.5293   17.6849 C   0  0  0  0  0  0  0  0  0  0  0  0
   10.0801   -8.8155   18.1369 C   0  0  0  0  0  0  0  0  0  0  0  0
   10.8488   -9.4034   19.1448 C   0  0  0  0  0  0  0  0  0  0  0  0
   11.9254   -8.7050   19.6988 C   0  0  0  0  0  0  0  0  0  0  0  0
   17.7753  -10.5898   12.9395 C   0  0  0  0  0  0  0  0  0  0  0  0
   18.3441  -11.7142   12.8643 O   0  0  0  0  0  0  0  0  0  0  0  0
   17.5498   -9.8367   11.7850 O   0  0  0  0  0  0  0  0  0  0  0  0
   18.5038   -8.9046   11.2977 C   0  0  0  0  0  0  0  0  0  0  0  0
   19.9082   -7.1953    4.3368 C   0  0  0  0  0  0  0  0  0  0  0  0
   19.4522   -7.6767    5.6671 C   0  0  0  0  0  0  0  0  0  0  0  0
   20.0367   -7.3306    6.8904 C   0  0  0  0  0  0  0  0  0  0  0  0
   19.2387   -8.0392    7.7681 C   0  0  0  0  0  0  0  0  0  0  0  0
   19.3315   -8.0881    9.1197 N   0  0  0  0  0  0  0  0  0  0  0  0
   18.4402   -8.8579    9.8131 C   0  0  0  0  0  0  0  0  0  0  0  0
   17.4331   -9.5749    9.1347 C   0  0  0  0  0  0  0  0  0  0  0  0
   17.3777   -9.4921    7.7380 C   0  0  0  0  0  0  0  0  0  0  0  0
   16.4997  -10.1162    7.0866 O   0  0  0  0  0  0  0  0  0  0  0  0
   18.2956   -8.7188    7.1100 N   0  0  0  0  0  0  0  0  0  0  0  0
   18.4324   -8.4937    5.8435 O   0  0  0  0  0  0  0  0  0  0  0  0
 23 24  1  0  0  0
 24 25  2  0  0  0
 25 26  1  0  0  0
 26 27  2  0  0  0
 27 28  1  0  0  0
 28 22  1  0  0  0
 28 29  2  0  0  0
 22 21  1  0  0  0
 21 19  1  0  0  0
 19 20  2  0  0  0
 19  1  1  0  0  0
  1  2  2  0  0  0
  2  3  1  0  0  0
  3  4  2  0  0  0
  4  7  1  0  0  0
  4  5  1  0  0  0
  7  8  1  0  0  0
  8  9  2  0  0  0
  8 11  1  0  0  0
 11 12  1  0  0  0
 12 13  1  0  0  0
 13 14  2  0  0  0
 14 15  1  0  0  0
 15 16  2  0  0  0
 16 17  1  0  0  0
 17 18  2  0  0  0
 18 13  1  0  0  0
  5  6  2  0  0  0
  6  1  1  0  0  0
 29 30  1  0  0  0
 30 31  2  0  0  0
 30 32  1  0  0  0
 32 33  1  0  0  0
 32 26  1  0  0  0
 33 24  1  0  0  0
  7 10  1  0  0  0
M  END
>  <minimizedAffinity>
-9.25657

>  <minimizedRMSD>
1.72861

$$$$
ChemDiv-C679-6220 MCULE-7454440486 MolPort-007-656-233 PubChem-20874384 ZINC000013368484


 32 35  0  0  0  0  0  0  0  0999 V2000
   17.3965  -10.1593   14.1682 C   0  0  0  0  0  0  0  0  0  0  0  0
   17.9578  -11.4139   14.4543 C   0  0  0  0  0  0  0  0  0  0  0  0
   17.9998  -11.8816   15.7700 C   0  0  0  0  0  0  0  0  0  0  0  0
   17.4826  -11.0996   16.8064 C   0  0  0  0  0  0  0  0  0  0  0  0
   16.9210   -9.8472   16.5361 C   0  0  0  0  0  0  0  0  0  0  0  0
   16.8816   -9.3840   15.2120 C   0  0  0  0  0  0  0  0  0  0  0  0
   16.4033   -9.0730   17.6268 N   0  0  0  0  0  0  0  0  0  0  0  0
   15.3989   -8.0533   17.5521 C   0  0  0  0  0  0  0  0  0  0  0  0
   14.8428   -7.7603   16.4605 O   0  0  0  0  0  0  0  0  0  0  0  0
   16.7761   -9.2614   18.5183 H   0  0  0  0  0  0  0  0  0  0  0  0
   14.9818   -7.3517   18.7945 C   0  0  0  0  0  0  0  0  0  0  0  0
   13.7657   -6.6532   18.5612 O   0  0  0  0  0  0  0  0  0  0  0  0
   13.0078   -6.0919   19.5924 C   0  0  0  0  0  0  0  0  0  0  0  0
   12.0375   -5.1345   19.2767 C   0  0  0  0  0  0  0  0  0  0  0  0
   11.2631   -4.5546   20.2864 C   0  0  0  0  0  0  0  0  0  0  0  0
   11.4552   -4.9308   21.6190 C   0  0  0  0  0  0  0  0  0  0  0  0
   12.4231   -5.8856   21.9429 C   0  0  0  0  0  0  0  0  0  0  0  0
   13.1979   -6.4651   20.9337 C   0  0  0  0  0  0  0  0  0  0  0  0
   10.6306   -4.3153   22.6913 C   0  0  0  0  0  0  0  0  0  0  0  0
   17.3379   -9.6620   12.8637 O   0  0  0  0  0  0  0  0  0  0  0  0
   18.4870   -9.1989   12.1666 C   0  0  0  0  0  0  0  0  0  0  0  0
   17.6921   -9.1221    8.0464 N   0  0  0  0  0  0  0  0  0  0  0  0
   17.6547   -8.9381    6.7665 O   0  0  0  0  0  0  0  0  0  0  0  0
   18.6730   -8.1755    6.4191 C   0  0  0  0  0  0  0  0  0  0  0  0
   19.4417   -7.8245    7.5341 C   0  0  0  0  0  0  0  0  0  0  0  0
   18.7489   -8.4709    8.5401 C   0  0  0  0  0  0  0  0  0  0  0  0
   19.0314   -8.4856    9.8660 N   0  0  0  0  0  0  0  0  0  0  0  0
   18.2137   -9.1895   10.7053 C   0  0  0  0  0  0  0  0  0  0  0  0
   17.0886   -9.8745   10.2017 C   0  0  0  0  0  0  0  0  0  0  0  0
   16.8390   -9.8300    8.8246 C   0  0  0  0  0  0  0  0  0  0  0  0
   15.8488  -10.4262    8.3264 O   0  0  0  0  0  0  0  0  0  0  0  0
   18.9518   -7.7510    5.0218 C   0  0  0  0  0  0  0  0  0  0  0  0
 22 23  1  0  0  0
 23 24  1  0  0  0
 24 25  2  0  0  0
 25 26  1  0  0  0
 26 27  2  0  0  0
 27 28  1  0  0  0
 28 21  1  0  0  0
 21 20  1  0  0  0
 20  1  1  0  0  0
  1  2  2  0  0  0
  2  3  1  0  0  0
  3  4  2  0  0  0
  4  5  1  0  0  0
  5  6  2  0  0  0
  5  7  1  0  0  0
  7  8  1  0  0  0
  8 11  1  0  0  0
 11 12  1  0  0  0
 12 13  1  0  0  0
 13 14  2  0  0  0
 14 15  1  0  0  0
 15 16  2  0  0  0
 16 17  1  0  0  0
 17 18  2  0  0  0
 16 19  1  0  0  0
  8  9  2  0  0  0
 28 29  2  0  0  0
 29 30  1  0  0  0
 30 31  2  0  0  0
 24 32  1  0  0  0
 26 22  1  0  0  0
  6  1  1  0  0  0
 18 13  1  0  0  0
 30 22  1  0  0  0
  7 10  1  0  0  0
M  END
>  <minimizedAffinity>
-9.25435

>  <minimizedRMSD>
0.93760

$$$$
ChemDiv-G355-3273 MCULE-6446847803 MolPort-010-743-030 PubChem-50793958 ZINC000035428416 ZINC35428416


 33 36  0  0  0  0  0  0  0  0999 V2000
   17.4714  -10.2594   14.2188 C   0  0  0  0  0  0  0  0  0  0  0  0
   16.8756   -9.5372   15.2599 C   0  0  0  0  0  0  0  0  0  0  0  0
   16.9040  -10.0045   16.5807 C   0  0  0  0  0  0  0  0  0  0  0  0
   17.5377  -11.2154   16.8623 C   0  0  0  0  0  0  0  0  0  0  0  0
   18.1323  -11.9540   15.8386 C   0  0  0  0  0  0  0  0  0  0  0  0
   18.1071  -11.4930   14.5189 C   0  0  0  0  0  0  0  0  0  0  0  0
   18.7303  -12.3673   13.4857 C   0  0  0  0  0  0  0  0  0  0  0  0
   16.3074   -9.2703   17.6582 N   0  0  0  0  0  0  0  0  0  0  0  0
   15.4510   -8.1270   17.5466 C   0  0  0  0  0  0  0  0  0  0  0  0
   15.1352   -7.6527   16.4235 O   0  0  0  0  0  0  0  0  0  0  0  0
   16.5071   -9.5844   18.5697 H   0  0  0  0  0  0  0  0  0  0  0  0
   14.9096   -7.4995   18.7852 C   0  0  0  0  0  0  0  0  0  0  0  0
   14.0046   -6.4498   18.4556 O   0  0  0  0  0  0  0  0  0  0  0  0
   12.6251   -6.5138   18.6970 C   0  0  0  0  0  0  0  0  0  0  0  0
   12.0228   -5.5643   19.5405 C   0  0  0  0  0  0  0  0  0  0  0  0
   12.8318   -4.4905   20.1824 C   0  0  0  0  0  0  0  0  0  0  0  0
   10.6473   -5.6183   19.7879 C   0  0  0  0  0  0  0  0  0  0  0  0
    9.8647   -6.6156   19.2007 C   0  0  0  0  0  0  0  0  0  0  0  0
   10.4560   -7.5646   18.3640 C   0  0  0  0  0  0  0  0  0  0  0  0
   11.8296   -7.5152   18.1143 C   0  0  0  0  0  0  0  0  0  0  0  0
   17.3881   -9.7001   12.9342 O   0  0  0  0  0  0  0  0  0  0  0  0
   18.4717   -9.1172   12.2230 C   0  0  0  0  0  0  0  0  0  0  0  0
   18.8916   -7.8803    5.0356 C   0  0  0  0  0  0  0  0  0  0  0  0
   18.6183   -8.2591    6.4465 C   0  0  0  0  0  0  0  0  0  0  0  0
   19.3873   -7.8649    7.5471 C   0  0  0  0  0  0  0  0  0  0  0  0
   18.7026   -8.4834    8.5761 C   0  0  0  0  0  0  0  0  0  0  0  0
   18.9928   -8.4575    9.9000 N   0  0  0  0  0  0  0  0  0  0  0  0
   18.1833   -9.1401   10.7646 C   0  0  0  0  0  0  0  0  0  0  0  0
   17.0646   -9.8532   10.2872 C   0  0  0  0  0  0  0  0  0  0  0  0
   16.8077   -9.8529    8.9108 C   0  0  0  0  0  0  0  0  0  0  0  0
   15.8214  -10.4748    8.4356 O   0  0  0  0  0  0  0  0  0  0  0  0
   17.6501   -9.1602    8.1073 N   0  0  0  0  0  0  0  0  0  0  0  0
   17.6079   -9.0194    6.8219 O   0  0  0  0  0  0  0  0  0  0  0  0
 23 24  1  0  0  0
 24 25  2  0  0  0
 25 26  1  0  0  0
 26 27  2  0  0  0
 27 28  1  0  0  0
 28 22  1  0  0  0
 28 29  2  0  0  0
 22 21  1  0  0  0
 21  1  1  0  0  0
  1  2  2  0  0  0
  2  3  1  0  0  0
  3  8  1  0  0  0
  3  4  2  0  0  0
  8  9  1  0  0  0
  9 10  2  0  0  0
  9 12  1  0  0  0
 12 13  1  0  0  0
 13 14  1  0  0  0
 14 15  2  0  0  0
 15 16  1  0  0  0
 15 17  1  0  0  0
 17 18  2  0  0  0
 18 19  1  0  0  0
 19 20  2  0  0  0
 20 14  1  0  0  0
  4  5  1  0  0  0
  5  6  2  0  0  0
  6  7  1  0  0  0
  6  1  1  0  0  0
 29 30  1  0  0  0
 30 31  2  0  0  0
 30 32  1  0  0  0
 32 33  1  0  0  0
 32 26  1  0  0  0
 33 24  1  0  0  0
  8 11  1  0  0  0
M  END
>  <minimizedAffinity>
-9.21670

>  <minimizedRMSD>
1.47960

$$$$
ChemDiv-D439-4250 MCULE-2195035167 MolPort-007-706-798 PubChem-46268380 ZINC000021797224 ZINC21797224


 35 38  0  0  0  0  0  0  0  0999 V2000
   17.3579  -10.0259   14.3133 C   0  0  0  0  0  0  0  0  0  0  0  0
   16.8632   -9.2904   15.3965 C   0  0  0  0  0  0  0  0  0  0  0  0
   16.9641   -9.7679   16.7099 C   0  0  0  0  0  0  0  0  0  0  0  0
   17.5730  -11.0012   16.9417 C   0  0  0  0  0  0  0  0  0  0  0  0
   18.0767  -11.7490   15.8771 C   0  0  0  0  0  0  0  0  0  0  0  0
   17.9774  -11.2786   14.5642 C   0  0  0  0  0  0  0  0  0  0  0  0
   18.5609  -12.1349   13.4935 C   0  0  0  0  0  0  0  0  0  0  0  0
   16.4595   -9.0264   17.8285 N   0  0  0  0  0  0  0  0  0  0  0  0
   15.5164   -7.9476   17.7882 C   0  0  0  0  0  0  0  0  0  0  0  0
   15.0352   -7.5394   16.6981 O   0  0  0  0  0  0  0  0  0  0  0  0
   16.7957   -9.2852   18.7169 H   0  0  0  0  0  0  0  0  0  0  0  0
   15.0709   -7.3197   19.0638 C   0  0  0  0  0  0  0  0  0  0  0  0
   13.8155   -6.6736   18.8823 O   0  0  0  0  0  0  0  0  0  0  0  0
   12.6200   -7.3679   18.6649 C   0  0  0  0  0  0  0  0  0  0  0  0
   11.7641   -6.9396   17.6440 C   0  0  0  0  0  0  0  0  0  0  0  0
   10.5619   -7.6118   17.4020 C   0  0  0  0  0  0  0  0  0  0  0  0
   10.2085   -8.7170   18.1826 C   0  0  0  0  0  0  0  0  0  0  0  0
    8.9309   -9.4313   17.9249 C   0  0  0  0  0  0  0  0  0  0  0  0
   11.0560   -9.1490   19.2065 C   0  0  0  0  0  0  0  0  0  0  0  0
   12.2575   -8.4769   19.4485 C   0  0  0  0  0  0  0  0  0  0  0  0
   17.2057   -9.4513   13.0412 O   0  0  0  0  0  0  0  0  0  0  0  0
   16.4003   -9.9716   11.9928 C   0  0  0  0  0  0  0  0  0  0  0  0
   18.6719   -8.2343    7.3032 N   0  0  0  0  0  0  0  0  0  0  0  0
   19.5974   -7.4240    7.8657 C   0  0  0  0  0  0  0  0  0  0  0  0
   19.5033   -7.4368    9.2241 N   0  0  0  0  0  0  0  0  0  0  0  0
   18.4846   -8.2953    9.4274 C   0  0  0  0  0  0  0  0  0  0  0  0
   17.9959   -8.6687   10.6355 N   0  0  0  0  0  0  0  0  0  0  0  0
   16.9707   -9.5703   10.6801 C   0  0  0  0  0  0  0  0  0  0  0  0
   16.4267  -10.0958    9.4905 C   0  0  0  0  0  0  0  0  0  0  0  0
   16.9657   -9.6835    8.2651 C   0  0  0  0  0  0  0  0  0  0  0  0
   16.5169  -10.1448    7.1827 O   0  0  0  0  0  0  0  0  0  0  0  0
   17.9833   -8.7805    8.2896 N   0  0  0  0  0  0  0  0  0  0  0  0
   18.4994   -8.4660    5.8753 C   0  0  0  0  0  0  0  0  0  0  0  0
   19.6760   -8.4392    3.6987 C   0  0  0  0  0  0  0  0  0  0  0  0
   19.6708   -7.8832    5.1069 C   0  0  0  0  0  0  0  0  0  0  0  0
 34 35  1  0  0  0
 35 33  1  0  0  0
 33 23  1  0  0  0
 23 24  1  0  0  0
 24 25  2  0  0  0
 25 26  1  0  0  0
 26 27  2  0  0  0
 27 28  1  0  0  0
 28 22  1  0  0  0
 28 29  2  0  0  0
 22 21  1  0  0  0
 21  1  1  0  0  0
  1  2  2  0  0  0
  2  3  1  0  0  0
  3  8  1  0  0  0
  3  4  2  0  0  0
  8  9  1  0  0  0
  9 10  2  0  0  0
  9 12  1  0  0  0
 12 13  1  0  0  0
 13 14  1  0  0  0
 14 15  2  0  0  0
 15 16  1  0  0  0
 16 17  2  0  0  0
 17 18  1  0  0  0
 17 19  1  0  0  0
 19 20  2  0  0  0
 20 14  1  0  0  0
  4  5  1  0  0  0
  5  6  2  0  0  0
  6  7  1  0  0  0
  6  1  1  0  0  0
 29 30  1  0  0  0
 30 31  2  0  0  0
 30 32  1  0  0  0
 32 23  1  0  0  0
 32 26  1  0  0  0
  8 11  1  0  0  0
M  END
>  <minimizedAffinity>
-9.20635

>  <minimizedRMSD>
1.88460

$$$$
ChemDiv-G756-1498 MCULE-2884943301 MolPort-007-879-867 PubChem-46356611 ZINC000033068167 ZINC33068167


 34 37  0  0  0  0  0  0  0  0999 V2000
   17.6269  -10.1141   16.2175 C   0  0  0  0  0  0  0  0  0  0  0  0
   17.5359   -9.8168   14.8496 C   0  0  0  0  0  0  0  0  0  0  0  0
   17.8436  -10.7881   13.8836 C   0  0  0  0  0  0  0  0  0  0  0  0
   18.2438  -12.0624   14.2960 C   0  0  0  0  0  0  0  0  0  0  0  0
   18.3378  -12.3654   15.6570 C   0  0  0  0  0  0  0  0  0  0  0  0
   18.0306  -11.3936   16.6130 C   0  0  0  0  0  0  0  0  0  0  0  0
   15.9080   -7.7414   18.6848 N   0  0  0  0  0  0  0  0  0  0  0  0
   16.0141   -8.7341   17.6564 C   0  0  0  0  0  0  0  0  0  0  0  0
   14.9804   -9.2374   17.1396 O   0  0  0  0  0  0  0  0  0  0  0  0
   17.3191   -9.1437   17.2278 N   0  0  0  0  0  0  0  0  0  0  0  0
   16.7534   -7.3884   19.0453 H   0  0  0  0  0  0  0  0  0  0  0  0
   18.0844   -8.7139   17.6737 H   0  0  0  0  0  0  0  0  0  0  0  0
   12.3475   -6.5851   19.0740 C   0  0  0  0  0  0  0  0  0  0  0  0
   12.3731   -6.1545   20.4040 C   0  0  0  0  0  0  0  0  0  0  0  0
   13.5492   -6.2477   21.1524 C   0  0  0  0  0  0  0  0  0  0  0  0
   14.7075   -6.7729   20.5731 C   0  0  0  0  0  0  0  0  0  0  0  0
   14.6995   -7.2083   19.2439 C   0  0  0  0  0  0  0  0  0  0  0  0
   13.5149   -7.1120   18.4984 C   0  0  0  0  0  0  0  0  0  0  0  0
   10.5999   -7.5677   17.6258 C   0  0  0  0  0  0  0  0  0  0  0  0
   11.1566   -6.4794   18.3505 O   0  0  0  0  0  0  0  0  0  0  0  0
   17.7599  -10.5134   12.5164 O   0  0  0  0  0  0  0  0  0  0  0  0
   17.0134   -9.4200   11.9985 C   0  0  0  0  0  0  0  0  0  0  0  0
   17.2667   -9.2895   10.5395 C   0  0  0  0  0  0  0  0  0  0  0  0
   16.5526  -10.0716    9.6367 C   0  0  0  0  0  0  0  0  0  0  0  0
   16.8284   -9.9487    8.2759 C   0  0  0  0  0  0  0  0  0  0  0  0
   16.1791  -10.6538    7.4553 O   0  0  0  0  0  0  0  0  0  0  0  0
   17.7918   -9.0755    7.8460 N   0  0  0  0  0  0  0  0  0  0  0  0
   18.0623   -8.9568    6.5117 C   0  0  0  0  0  0  0  0  0  0  0  0
   19.0431   -8.0735    6.0581 C   0  0  0  0  0  0  0  0  0  0  0  0
   19.3284   -7.9535    4.6048 C   0  0  0  0  0  0  0  0  0  0  0  0
   19.7532   -7.3064    6.9793 C   0  0  0  0  0  0  0  0  0  0  0  0
   19.4768   -7.4280    8.3400 C   0  0  0  0  0  0  0  0  0  0  0  0
   18.4885   -8.3200    8.7637 C   0  0  0  0  0  0  0  0  0  0  0  0
   18.2221   -8.4375   10.0902 N   0  0  0  0  0  0  0  0  0  0  0  0
 19 20  1  0  0  0
 20 13  1  0  0  0
 13 14  2  0  0  0
 14 15  1  0  0  0
 15 16  2  0  0  0
 16 17  1  0  0  0
 17  7  1  0  0  0
 17 18  2  0  0  0
  7  8  1  0  0  0
  8  9  2  0  0  0
  8 10  1  0  0  0
 10  1  1  0  0  0
  1  2  2  0  0  0
  2  3  1  0  0  0
  3 21  1  0  0  0
  3  4  2  0  0  0
 21 22  1  0  0  0
 22 23  1  0  0  0
 23 24  2  0  0  0
 24 25  1  0  0  0
 25 26  2  0  0  0
 25 27  1  0  0  0
 27 28  1  0  0  0
 28 29  2  0  0  0
 29 30  1  0  0  0
 29 31  1  0  0  0
 31 32  2  0  0  0
 32 33  1  0  0  0
 33 34  2  0  0  0
 33 27  1  0  0  0
 34 23  1  0  0  0
  4  5  1  0  0  0
  5  6  2  0  0  0
  6  1  1  0  0  0
 18 13  1  0  0  0
  7 11  1  0  0  0
 10 12  1  0  0  0
M  END
>  <minimizedAffinity>
-9.20443

>  <minimizedRMSD>
1.55581

$$$$
ChemDiv-G756-0154 MCULE-8482652876 MolPort-010-744-606 PubChem-50802161 ZINC000033268520 ZINC33268520


 33 36  0  0  0  0  0  0  0  0999 V2000
   16.8300  -10.3201   16.5014 C   0  0  0  0  0  0  0  0  0  0  0  0
   16.7960  -10.0819   15.1185 C   0  0  0  0  0  0  0  0  0  0  0  0
   17.5984  -10.8262   14.2454 C   0  0  0  0  0  0  0  0  0  0  0  0
   18.4441  -11.8204   14.7645 C   0  0  0  0  0  0  0  0  0  0  0  0
   18.4851  -12.0603   16.1404 C   0  0  0  0  0  0  0  0  0  0  0  0
   17.6809  -11.3104   17.0047 C   0  0  0  0  0  0  0  0  0  0  0  0
   15.4598   -8.2666   17.2093 C   0  0  0  0  0  0  0  0  0  0  0  0
   15.5866   -7.6865   16.0978 O   0  0  0  0  0  0  0  0  0  0  0  0
   16.0266   -9.5684   17.4225 N   0  0  0  0  0  0  0  0  0  0  0  0
   15.8447   -9.9901   18.2933 H   0  0  0  0  0  0  0  0  0  0  0  0
   13.2889   -6.3495   20.3779 C   0  0  0  0  0  0  0  0  0  0  0  0
   14.5708   -6.9023   20.6264 C   0  0  0  0  0  0  0  0  0  0  0  0
   15.2621   -7.5213   19.5794 C   0  0  0  0  0  0  0  0  0  0  0  0
   14.7105   -7.6110   18.2959 C   0  0  0  0  0  0  0  0  0  0  0  0
   13.4433   -7.0686   18.0582 C   0  0  0  0  0  0  0  0  0  0  0  0
   12.7402   -6.4451   19.0888 C   0  0  0  0  0  0  0  0  0  0  0  0
   11.7743   -4.5601   21.1827 C   0  0  0  0  0  0  0  0  0  0  0  0
   12.5768   -5.7127   21.3998 O   0  0  0  0  0  0  0  0  0  0  0  0
   15.2071   -6.8651   21.8753 O   0  0  0  0  0  0  0  0  0  0  0  0
   14.9294   -7.7473   22.9530 C   0  0  0  0  0  0  0  0  0  0  0  0
   17.5392  -10.5577   12.8746 O   0  0  0  0  0  0  0  0  0  0  0  0
   16.9818   -9.3571   12.3530 C   0  0  0  0  0  0  0  0  0  0  0  0
   17.2247   -9.2856   10.8880 C   0  0  0  0  0  0  0  0  0  0  0  0
   16.5150  -10.1146   10.0229 C   0  0  0  0  0  0  0  0  0  0  0  0
   16.7613  -10.0243    8.6535 C   0  0  0  0  0  0  0  0  0  0  0  0
   16.1139  -10.7680    7.8669 O   0  0  0  0  0  0  0  0  0  0  0  0
   17.6881   -9.1356    8.1784 N   0  0  0  0  0  0  0  0  0  0  0  0
   17.9305   -9.0487    6.8353 C   0  0  0  0  0  0  0  0  0  0  0  0
   18.8690   -8.1456    6.3344 C   0  0  0  0  0  0  0  0  0  0  0  0
   19.5667   -7.3241    7.2190 C   0  0  0  0  0  0  0  0  0  0  0  0
   19.3203   -7.4111    8.5883 C   0  0  0  0  0  0  0  0  0  0  0  0
   18.3720   -8.3242    9.0585 C   0  0  0  0  0  0  0  0  0  0  0  0
   18.1323   -8.4073   10.3933 N   0  0  0  0  0  0  0  0  0  0  0  0
 17 18  1  0  0  0
 18 11  1  0  0  0
 11 12  2  0  0  0
 12 19  1  0  0  0
 12 13  1  0  0  0
 19 20  1  0  0  0
 13 14  2  0  0  0
 14 15  1  0  0  0
 14  7  1  0  0  0
 15 16  2  0  0  0
 16 11  1  0  0  0
  7  8  2  0  0  0
  7  9  1  0  0  0
  9  1  1  0  0  0
  1  2  2  0  0  0
  2  3  1  0  0  0
  3 21  1  0  0  0
  3  4  2  0  0  0
 21 22  1  0  0  0
 22 23  1  0  0  0
 23 24  2  0  0  0
 24 25  1  0  0  0
 25 26  2  0  0  0
 25 27  1  0  0  0
 27 28  1  0  0  0
 28 29  2  0  0  0
 29 30  1  0  0  0
 30 31  2  0  0  0
 31 32  1  0  0  0
 32 33  2  0  0  0
 32 27  1  0  0  0
 33 23  1  0  0  0
  4  5  1  0  0  0
  5  6  2  0  0  0
  6  1  1  0  0  0
  9 10  1  0  0  0
M  END
>  <minimizedAffinity>
-9.19917

>  <minimizedRMSD>
1.31114

$$$$
ChemDiv-G756-0131 MCULE-4876628306 MolPort-010-686-756 PubChem-50802120 ZINC000033268508 ZINC33268508


 30 33  0  0  0  0  0  0  0  0999 V2000
   16.7797   -9.9211   16.9714 C   0  0  0  0  0  0  0  0  0  0  0  0
   16.8119   -9.4725   15.6421 C   0  0  0  0  0  0  0  0  0  0  0  0
   17.4671  -10.2135   14.6538 C   0  0  0  0  0  0  0  0  0  0  0  0
   18.0978  -11.4186   15.0011 C   0  0  0  0  0  0  0  0  0  0  0  0
   18.0697  -11.8712   16.3223 C   0  0  0  0  0  0  0  0  0  0  0  0
   17.4125  -11.1236   17.3029 C   0  0  0  0  0  0  0  0  0  0  0  0
   15.2734   -8.0308   17.8434 C   0  0  0  0  0  0  0  0  0  0  0  0
   15.0535   -7.5677   16.6922 O   0  0  0  0  0  0  0  0  0  0  0  0
   16.1158   -9.1833   18.0068 N   0  0  0  0  0  0  0  0  0  0  0  0
   16.2521   -9.5006   18.9287 H   0  0  0  0  0  0  0  0  0  0  0  0
   12.4500   -6.8697   17.8842 C   0  0  0  0  0  0  0  0  0  0  0  0
   13.3567   -6.8549   19.0684 C   0  0  0  0  0  0  0  0  0  0  0  0
   14.6689   -7.3965   19.0434 C   0  0  0  0  0  0  0  0  0  0  0  0
   15.4428   -7.3322   20.2139 C   0  0  0  0  0  0  0  0  0  0  0  0
   14.9409   -6.7507   21.3794 C   0  0  0  0  0  0  0  0  0  0  0  0
   13.6514   -6.2218   21.3937 C   0  0  0  0  0  0  0  0  0  0  0  0
   12.8648   -6.2747   20.2427 C   0  0  0  0  0  0  0  0  0  0  0  0
   17.4761   -9.7322   13.3422 O   0  0  0  0  0  0  0  0  0  0  0  0
   18.5601   -9.9554   12.4499 C   0  0  0  0  0  0  0  0  0  0  0  0
   18.1512   -9.5905   11.0680 C   0  0  0  0  0  0  0  0  0  0  0  0
   16.9312  -10.0309   10.5640 C   0  0  0  0  0  0  0  0  0  0  0  0
   16.5602   -9.6515    9.2749 C   0  0  0  0  0  0  0  0  0  0  0  0
   15.4563  -10.0534    8.8143 O   0  0  0  0  0  0  0  0  0  0  0  0
   17.3861   -8.8539    8.5286 N   0  0  0  0  0  0  0  0  0  0  0  0
   17.0213   -8.4824    7.2650 C   0  0  0  0  0  0  0  0  0  0  0  0
   17.8501   -7.6673    6.4919 C   0  0  0  0  0  0  0  0  0  0  0  0
   19.0629   -7.2297    7.0204 C   0  0  0  0  0  0  0  0  0  0  0  0
   19.4346   -7.6087    8.3091 C   0  0  0  0  0  0  0  0  0  0  0  0
   18.5839   -8.4257    9.0574 C   0  0  0  0  0  0  0  0  0  0  0  0
   18.9482   -8.7936   10.3130 N   0  0  0  0  0  0  0  0  0  0  0  0
 11 12  1  0  0  0
 12 13  2  0  0  0
 13 14  1  0  0  0
 13  7  1  0  0  0
 14 15  2  0  0  0
 15 16  1  0  0  0
 16 17  2  0  0  0
 17 12  1  0  0  0
  7  8  2  0  0  0
  7  9  1  0  0  0
  9  1  1  0  0  0
  1  2  2  0  0  0
  2  3  1  0  0  0
  3 18  1  0  0  0
  3  4  2  0  0  0
 18 19  1  0  0  0
 19 20  1  0  0  0
 20 21  2  0  0  0
 21 22  1  0  0  0
 22 23  2  0  0  0
 22 24  1  0  0  0
 24 25  1  0  0  0
 25 26  2  0  0  0
 26 27  1  0  0  0
 27 28  2  0  0  0
 28 29  1  0  0  0
 29 30  2  0  0  0
 29 24  1  0  0  0
 30 20  1  0  0  0
  4  5  1  0  0  0
  5  6  2  0  0  0
  6  1  1  0  0  0
  9 10  1  0  0  0
M  END
>  <minimizedAffinity>
-9.19779

>  <minimizedRMSD>
1.00036

$$$$
ChemDiv-F172-0220 MCULE-8858875913 MolPort-010-736-216 PubChem-50764239 ZINC000035378596 ZINC35378596


 31 34  0  0  0  0  0  0  0  0999 V2000
   17.4456  -10.3276   14.2338 C   0  0  0  0  0  0  0  0  0  0  0  0
   18.1677  -11.4813   14.5773 C   0  0  0  0  0  0  0  0  0  0  0  0
   18.2236  -11.9056   15.9070 C   0  0  0  0  0  0  0  0  0  0  0  0
   17.5595  -11.1807   16.9000 C   0  0  0  0  0  0  0  0  0  0  0  0
   16.8361  -10.0293   16.5723 C   0  0  0  0  0  0  0  0  0  0  0  0
   16.7841   -9.6089   15.2346 C   0  0  0  0  0  0  0  0  0  0  0  0
   16.1683   -9.3132   17.6200 N   0  0  0  0  0  0  0  0  0  0  0  0
   15.3603   -8.1344   17.4790 C   0  0  0  0  0  0  0  0  0  0  0  0
   15.1726   -7.6166   16.3444 O   0  0  0  0  0  0  0  0  0  0  0  0
   16.2750   -9.6671   18.5325 H   0  0  0  0  0  0  0  0  0  0  0  0
   14.7447   -7.5245   18.6710 C   0  0  0  0  0  0  0  0  0  0  0  0
   15.3767   -7.6153   19.9193 C   0  0  0  0  0  0  0  0  0  0  0  0
   14.7961   -7.0381   21.0527 C   0  0  0  0  0  0  0  0  0  0  0  0
   15.4263   -7.1390   22.2496 F   0  0  0  0  0  0  0  0  0  0  0  0
   13.5726   -6.3625   20.9435 C   0  0  0  0  0  0  0  0  0  0  0  0
   12.9375   -5.7409   22.1378 C   0  0  0  0  0  0  0  0  0  0  0  0
   12.9382   -6.2688   19.7017 C   0  0  0  0  0  0  0  0  0  0  0  0
   13.5210   -6.8469   18.5707 C   0  0  0  0  0  0  0  0  0  0  0  0
   17.3692   -9.8759   12.9140 O   0  0  0  0  0  0  0  0  0  0  0  0
   18.4764   -9.2982   12.2350 C   0  0  0  0  0  0  0  0  0  0  0  0
   18.9478   -7.7118    5.1211 C   0  0  0  0  0  0  0  0  0  0  0  0
   18.6625   -8.1568    6.5103 C   0  0  0  0  0  0  0  0  0  0  0  0
   19.4417   -7.8453    7.6298 C   0  0  0  0  0  0  0  0  0  0  0  0
   18.7375   -8.4963    8.6246 C   0  0  0  0  0  0  0  0  0  0  0  0
   19.0249   -8.5460    9.9484 N   0  0  0  0  0  0  0  0  0  0  0  0
   18.1973   -9.2524   10.7754 C   0  0  0  0  0  0  0  0  0  0  0  0
   17.0571   -9.9040   10.2619 C   0  0  0  0  0  0  0  0  0  0  0  0
   16.8021   -9.8231    8.8874 C   0  0  0  0  0  0  0  0  0  0  0  0
   15.7993  -10.3904    8.3803 O   0  0  0  0  0  0  0  0  0  0  0  0
   17.6657   -9.1147    8.1212 N   0  0  0  0  0  0  0  0  0  0  0  0
   17.6289   -8.9040    6.8454 O   0  0  0  0  0  0  0  0  0  0  0  0
 21 22  1  0  0  0
 22 23  2  0  0  0
 23 24  1  0  0  0
 24 25  2  0  0  0
 25 26  1  0  0  0
 26 20  1  0  0  0
 26 27  2  0  0  0
 20 19  1  0  0  0
 19  1  1  0  0  0
  1  2  2  0  0  0
  2  3  1  0  0  0
  3  4  2  0  0  0
  4  5  1  0  0  0
  5  7  1  0  0  0
  5  6  2  0  0  0
  7  8  1  0  0  0
  8  9  2  0  0  0
  8 11  1  0  0  0
 11 12  2  0  0  0
 12 13  1  0  0  0
 13 14  1  0  0  0
 13 15  2  0  0  0
 15 16  1  0  0  0
 15 17  1  0  0  0
 17 18  2  0  0  0
 18 11  1  0  0  0
  6  1  1  0  0  0
 27 28  1  0  0  0
 28 29  2  0  0  0
 28 30  1  0  0  0
 30 31  1  0  0  0
 30 24  1  0  0  0
 31 22  1  0  0  0
  7 10  1  0  0  0
M  END
>  <minimizedAffinity>
-9.19040

>  <minimizedRMSD>
0.97626

$$$$
ChemDiv-G756-0370 MCULE-3315862273 MolPort-010-966-123 PubChem-50802145 ZINC000033268557 ZINC33268557


 32 35  0  0  0  0  0  0  0  0999 V2000
   16.8000  -10.0050   16.6601 C   0  0  0  0  0  0  0  0  0  0  0  0
   17.4070  -11.2189   16.9829 C   0  0  0  0  0  0  0  0  0  0  0  0
   18.0544  -11.9664   15.9988 C   0  0  0  0  0  0  0  0  0  0  0  0
   18.1053  -11.5139   14.6768 C   0  0  0  0  0  0  0  0  0  0  0  0
   18.8244  -12.3747   13.6960 C   0  0  0  0  0  0  0  0  0  0  0  0
   17.4908  -10.2804   14.3335 C   0  0  0  0  0  0  0  0  0  0  0  0
   16.8483   -9.5464   15.3373 C   0  0  0  0  0  0  0  0  0  0  0  0
   15.3079   -8.1081   17.5352 C   0  0  0  0  0  0  0  0  0  0  0  0
   15.0765   -7.6394   16.3874 O   0  0  0  0  0  0  0  0  0  0  0  0
   16.1447   -9.2637   17.6981 N   0  0  0  0  0  0  0  0  0  0  0  0
   16.2831   -9.5804   18.6199 H   0  0  0  0  0  0  0  0  0  0  0  0
   14.7953   -6.9306   21.0981 C   0  0  0  0  0  0  0  0  0  0  0  0
   13.5845   -6.2418   20.9790 C   0  0  0  0  0  0  0  0  0  0  0  0
   12.9373   -6.1612   19.7432 C   0  0  0  0  0  0  0  0  0  0  0  0
   13.4995   -6.7701   18.6182 C   0  0  0  0  0  0  0  0  0  0  0  0
   14.7133   -7.4649   18.7203 C   0  0  0  0  0  0  0  0  0  0  0  0
   15.3556   -7.5410   19.9640 C   0  0  0  0  0  0  0  0  0  0  0  0
   16.7182   -6.4694   22.5837 C   0  0  0  0  0  0  0  0  0  0  0  0
   15.4185   -6.9932   22.3474 O   0  0  0  0  0  0  0  0  0  0  0  0
   17.4769   -9.7262   13.0433 O   0  0  0  0  0  0  0  0  0  0  0  0
   18.6178   -9.2771   12.3259 C   0  0  0  0  0  0  0  0  0  0  0  0
   18.2950   -9.1947   10.8772 C   0  0  0  0  0  0  0  0  0  0  0  0
   17.1468   -9.8070   10.3840 C   0  0  0  0  0  0  0  0  0  0  0  0
   16.8538   -9.6909    9.0261 C   0  0  0  0  0  0  0  0  0  0  0  0
   15.8161  -10.2496    8.5756 O   0  0  0  0  0  0  0  0  0  0  0  0
   17.6841   -8.9788    8.2020 N   0  0  0  0  0  0  0  0  0  0  0  0
   17.3952   -8.8647    6.8713 C   0  0  0  0  0  0  0  0  0  0  0  0
   18.2291   -8.1397    6.0181 C   0  0  0  0  0  0  0  0  0  0  0  0
   19.3688   -7.5271    6.5353 C   0  0  0  0  0  0  0  0  0  0  0  0
   19.6632   -7.6438    7.8925 C   0  0  0  0  0  0  0  0  0  0  0  0
   18.8093   -8.3761    8.7205 C   0  0  0  0  0  0  0  0  0  0  0  0
   19.0975   -8.4874   10.0429 N   0  0  0  0  0  0  0  0  0  0  0  0
 18 19  1  0  0  0
 19 12  1  0  0  0
 12 13  2  0  0  0
 13 14  1  0  0  0
 14 15  2  0  0  0
 15 16  1  0  0  0
 16 17  2  0  0  0
 16  8  1  0  0  0
 17 12  1  0  0  0
  8  9  2  0  0  0
  8 10  1  0  0  0
 10  1  1  0  0  0
  1  2  2  0  0  0
  2  3  1  0  0  0
  3  4  2  0  0  0
  4  5  1  0  0  0
  4  6  1  0  0  0
  6 20  1  0  0  0
  6  7  2  0  0  0
 20 21  1  0  0  0
 21 22  1  0  0  0
 22 23  2  0  0  0
 23 24  1  0  0  0
 24 25  2  0  0  0
 24 26  1  0  0  0
 26 27  1  0  0  0
 27 28  2  0  0  0
 28 29  1  0  0  0
 29 30  2  0  0  0
 30 31  1  0  0  0
 31 32  2  0  0  0
 31 26  1  0  0  0
 32 22  1  0  0  0
  7  1  1  0  0  0
 10 11  1  0  0  0
M  END
>  <minimizedAffinity>
-9.18831

>  <minimizedRMSD>
1.07621

$$$$
ChemDiv-C679-4205 MCULE-2167229277 MolPort-007-655-816 PubChem-20874230 ZINC000013368022


 34 37  0  0  0  0  0  0  0  0999 V2000
   17.9097  -10.4125   14.1283 C   0  0  0  0  0  0  0  0  0  0  0  0
   18.3564  -11.7074   14.4352 C   0  0  0  0  0  0  0  0  0  0  0  0
   18.1896  -12.2215   15.7233 C   0  0  0  0  0  0  0  0  0  0  0  0
   17.5765  -11.4460   16.7111 C   0  0  0  0  0  0  0  0  0  0  0  0
   17.1266  -10.1541   16.4193 C   0  0  0  0  0  0  0  0  0  0  0  0
   17.2975   -9.6441   15.1234 C   0  0  0  0  0  0  0  0  0  0  0  0
   16.5023   -9.3896   17.4597 N   0  0  0  0  0  0  0  0  0  0  0  0
   15.6582   -8.2434   17.2921 C   0  0  0  0  0  0  0  0  0  0  0  0
   15.3684   -7.8051   16.1476 O   0  0  0  0  0  0  0  0  0  0  0  0
   16.6710   -9.6822   18.3845 H   0  0  0  0  0  0  0  0  0  0  0  0
   15.0815   -7.5835   18.4925 C   0  0  0  0  0  0  0  0  0  0  0  0
   13.9156   -6.8591   18.1234 O   0  0  0  0  0  0  0  0  0  0  0  0
   13.0538   -6.2872   19.0628 C   0  0  0  0  0  0  0  0  0  0  0  0
   13.2246   -6.4943   20.4419 C   0  0  0  0  0  0  0  0  0  0  0  0
   12.3449   -5.9079   21.3565 C   0  0  0  0  0  0  0  0  0  0  0  0
   11.2905   -5.1123   20.8997 C   0  0  0  0  0  0  0  0  0  0  0  0
   11.1160   -4.9029   19.5290 C   0  0  0  0  0  0  0  0  0  0  0  0
   11.9958   -5.4892   18.6139 C   0  0  0  0  0  0  0  0  0  0  0  0
   10.4380   -4.5440   21.7856 F   0  0  0  0  0  0  0  0  0  0  0  0
   18.0609   -9.8681   12.8506 O   0  0  0  0  0  0  0  0  0  0  0  0
   16.9920   -9.2468   12.1491 C   0  0  0  0  0  0  0  0  0  0  0  0
   17.7496   -9.2781    8.0014 N   0  0  0  0  0  0  0  0  0  0  0  0
   16.7642  -10.0863    8.4738 C   0  0  0  0  0  0  0  0  0  0  0  0
   16.0944  -10.8136    7.6933 O   0  0  0  0  0  0  0  0  0  0  0  0
   16.5012  -10.0972    9.8481 C   0  0  0  0  0  0  0  0  0  0  0  0
   17.2706   -9.2761   10.6892 C   0  0  0  0  0  0  0  0  0  0  0  0
   18.2430   -8.4753   10.1683 N   0  0  0  0  0  0  0  0  0  0  0  0
   18.4680   -8.4935    8.8318 C   0  0  0  0  0  0  0  0  0  0  0  0
   19.6150   -7.5905    8.0013 S   0  0  0  0  0  0  0  0  0  0  0  0
   19.1096   -8.2875    6.5390 C   0  0  0  0  0  0  0  0  0  0  0  0
   18.0970   -9.1724    6.7212 N   0  0  0  0  0  0  0  0  0  0  0  0
   19.7034   -7.9631    5.2092 C   0  0  0  0  0  0  0  0  0  0  0  0
   20.1628   -6.5187    5.1744 C   0  0  0  0  0  0  0  0  0  0  0  0
   18.6935   -8.2086    4.1053 C   0  0  0  0  0  0  0  0  0  0  0  0
 22 23  1  0  0  0
 23 24  2  0  0  0
 23 25  1  0  0  0
 25 26  2  0  0  0
 26 27  1  0  0  0
 27 28  2  0  0  0
 28 29  1  0  0  0
 29 30  1  0  0  0
 30 32  1  0  0  0
 32 33  1  0  0  0
 32 34  1  0  0  0
 30 31  2  0  0  0
 26 21  1  0  0  0
 21 20  1  0  0  0
 20  1  1  0  0  0
  1  2  2  0  0  0
  2  3  1  0  0  0
  3  4  2  0  0  0
  4  5  1  0  0  0
  5  6  2  0  0  0
  5  7  1  0  0  0
  7  8  1  0  0  0
  8 11  1  0  0  0
 11 12  1  0  0  0
 12 13  1  0  0  0
 13 14  2  0  0  0
 14 15  1  0  0  0
 15 16  2  0  0  0
 16 17  1  0  0  0
 17 18  2  0  0  0
 16 19  1  0  0  0
  8  9  2  0  0  0
 28 22  1  0  0  0
  6  1  1  0  0  0
 18 13  1  0  0  0
 31 22  1  0  0  0
  7 10  1  0  0  0
M  END
>  <minimizedAffinity>
-9.18784

>  <minimizedRMSD>
1.11879

$$$$
ChemDiv-G756-0425 MCULE-1337739837 MolPort-007-879-151 PubChem-46356018 ZINC000033067815 ZINC33067815


 36 39  0  0  0  0  0  0  0  0999 V2000
   17.2134   -9.5289   16.5413 C   0  0  0  0  0  0  0  0  0  0  0  0
   17.6625  -10.7940   16.9297 C   0  0  0  0  0  0  0  0  0  0  0  0
   18.1443  -11.6961   15.9781 C   0  0  0  0  0  0  0  0  0  0  0  0
   18.1811  -11.3417   14.6269 C   0  0  0  0  0  0  0  0  0  0  0  0
   18.7010  -12.3237   13.6345 C   0  0  0  0  0  0  0  0  0  0  0  0
   17.7335  -10.0745   14.2200 C   0  0  0  0  0  0  0  0  0  0  0  0
   17.2513   -9.1755   15.1851 C   0  0  0  0  0  0  0  0  0  0  0  0
   15.0702   -7.3186   18.8201 N   0  0  0  0  0  0  0  0  0  0  0  0
   15.3660   -8.2208   17.7465 C   0  0  0  0  0  0  0  0  0  0  0  0
   14.4495   -8.6441   16.9915 O   0  0  0  0  0  0  0  0  0  0  0  0
   16.7250   -8.6304   17.5470 N   0  0  0  0  0  0  0  0  0  0  0  0
   15.8307   -7.0288   19.3741 H   0  0  0  0  0  0  0  0  0  0  0  0
   17.3934   -8.2556   18.1651 H   0  0  0  0  0  0  0  0  0  0  0  0
   12.4856   -5.1365   20.3897 C   0  0  0  0  0  0  0  0  0  0  0  0
   11.3018   -5.7120   19.9015 C   0  0  0  0  0  0  0  0  0  0  0  0
   11.3485   -6.8213   19.0529 C   0  0  0  0  0  0  0  0  0  0  0  0
   12.5933   -7.3584   18.6911 C   0  0  0  0  0  0  0  0  0  0  0  0
   13.7829   -6.7935   19.1724 C   0  0  0  0  0  0  0  0  0  0  0  0
   13.7182   -5.6833   20.0202 C   0  0  0  0  0  0  0  0  0  0  0  0
   11.3793   -3.7479   22.1120 C   0  0  0  0  0  0  0  0  0  0  0  0
   12.4653   -4.0267   21.2389 O   0  0  0  0  0  0  0  0  0  0  0  0
   10.1503   -7.3679   18.5857 O   0  0  0  0  0  0  0  0  0  0  0  0
   10.0794   -8.6456   17.9675 C   0  0  0  0  0  0  0  0  0  0  0  0
   17.7749   -9.7265   12.8651 O   0  0  0  0  0  0  0  0  0  0  0  0
   16.6039   -9.5838   12.0717 C   0  0  0  0  0  0  0  0  0  0  0  0
   16.9868   -9.3884   10.6489 C   0  0  0  0  0  0  0  0  0  0  0  0
   16.3673  -10.1366    9.6525 C   0  0  0  0  0  0  0  0  0  0  0  0
   16.7656   -9.9540    8.3291 C   0  0  0  0  0  0  0  0  0  0  0  0
   16.2023  -10.6282    7.4236 O   0  0  0  0  0  0  0  0  0  0  0  0
   17.7545   -9.0562    8.0267 N   0  0  0  0  0  0  0  0  0  0  0  0
   18.1440   -8.8778    6.7290 C   0  0  0  0  0  0  0  0  0  0  0  0
   19.1527   -7.9690    6.4036 C   0  0  0  0  0  0  0  0  0  0  0  0
   19.7665   -7.2380    7.4187 C   0  0  0  0  0  0  0  0  0  0  0  0
   19.3690   -7.4201    8.7420 C   0  0  0  0  0  0  0  0  0  0  0  0
   18.3561   -8.3361    9.0354 C   0  0  0  0  0  0  0  0  0  0  0  0
   17.9704   -8.5119   10.3256 N   0  0  0  0  0  0  0  0  0  0  0  0
 20 21  1  0  0  0
 21 14  1  0  0  0
 14 15  2  0  0  0
 15 16  1  0  0  0
 16 22  1  0  0  0
 16 17  2  0  0  0
 22 23  1  0  0  0
 17 18  1  0  0  0
 18  8  1  0  0  0
 18 19  2  0  0  0
  8  9  1  0  0  0
  9 10  2  0  0  0
  9 11  1  0  0  0
 11  1  1  0  0  0
  1  2  2  0  0  0
  2  3  1  0  0  0
  3  4  2  0  0  0
  4  5  1  0  0  0
  4  6  1  0  0  0
  6 24  1  0  0  0
  6  7  2  0  0  0
 24 25  1  0  0  0
 25 26  1  0  0  0
 26 27  2  0  0  0
 27 28  1  0  0  0
 28 29  2  0  0  0
 28 30  1  0  0  0
 30 31  1  0  0  0
 31 32  2  0  0  0
 32 33  1  0  0  0
 33 34  2  0  0  0
 34 35  1  0  0  0
 35 36  2  0  0  0
 35 30  1  0  0  0
 36 26  1  0  0  0
  7  1  1  0  0  0
 19 14  1  0  0  0
  8 12  1  0  0  0
 11 13  1  0  0  0
M  END
>  <minimizedAffinity>
-9.18502

>  <minimizedRMSD>
1.77792

$$$$
ChemDiv-G795-0372 MCULE-3688204905 MolPort-010-745-021 PubChem-53030371 ZINC000035447638


 27 29  0  0  0  0  0  0  0  0999 V2000
   17.3477   -9.9150   13.9141 C   0  0  0  0  0  0  0  0  0  0  0  0
   18.0380  -10.9850   14.5256 C   0  0  0  0  0  0  0  0  0  0  0  0
   18.9515  -11.8801   13.7598 C   0  0  0  0  0  0  0  0  0  0  0  0
   17.9304  -11.1800   15.9055 C   0  0  0  0  0  0  0  0  0  0  0  0
   17.1559  -10.3171   16.6833 C   0  0  0  0  0  0  0  0  0  0  0  0
   16.4900   -9.2371   16.0918 C   0  0  0  0  0  0  0  0  0  0  0  0
   16.5990   -9.0404   14.7087 C   0  0  0  0  0  0  0  0  0  0  0  0
   16.3745   -9.8671   11.5652 C   0  0  0  0  0  0  0  0  0  0  0  0
   15.2008  -10.0815   11.9729 O   0  0  0  0  0  0  0  0  0  0  0  0
   17.4308   -9.6493   12.5082 N   0  0  0  0  0  0  0  0  0  0  0  0
   18.2798   -9.2891   12.1637 H   0  0  0  0  0  0  0  0  0  0  0  0
   16.6325   -9.7983   10.1132 C   0  0  0  0  0  0  0  0  0  0  0  0
   17.6583   -9.0255    9.5073 C   0  0  0  0  0  0  0  0  0  0  0  0
   18.5969   -8.2035   10.1413 C   0  0  0  0  0  0  0  0  0  0  0  0
   19.5399   -7.5169    9.3569 C   0  0  0  0  0  0  0  0  0  0  0  0
   19.5410   -7.6541    7.9551 C   0  0  0  0  0  0  0  0  0  0  0  0
   18.6000   -8.4791    7.3204 C   0  0  0  0  0  0  0  0  0  0  0  0
   17.6819   -9.1432    8.1268 C   0  0  0  0  0  0  0  0  0  0  0  0
   16.4545  -10.1815    7.7167 S   0  0  0  0  0  0  0  0  0  0  0  0
   15.8632  -10.5111    9.2405 N   0  0  0  0  0  0  0  0  0  0  0  0
   15.6859   -8.3168   16.9147 C   0  0  0  0  0  0  0  0  0  0  0  0
   15.8066   -8.3395   18.3410 N   0  0  0  0  0  0  0  0  0  0  0  0
   14.8884   -7.5098   16.3628 O   0  0  0  0  0  0  0  0  0  0  0  0
   16.4160   -8.9945   18.7520 H   0  0  0  0  0  0  0  0  0  0  0  0
   15.0660   -7.4347   19.2103 C   0  0  0  0  0  0  0  0  0  0  0  0
   15.7423   -7.3086   20.5378 C   0  0  0  0  0  0  0  0  0  0  0  0
   15.0293   -7.2296   21.6586 C   0  0  0  0  0  0  0  0  0  0  0  0
 12 13  1  0  0  0
 13 14  2  0  0  0
 14 15  1  0  0  0
 15 16  2  0  0  0
 16 17  1  0  0  0
 17 18  2  0  0  0
 18 19  1  0  0  0
 19 20  1  0  0  0
 12  8  1  0  0  0
  8  9  2  0  0  0
  8 10  1  0  0  0
 10  1  1  0  0  0
  1  2  2  0  0  0
  2  3  1  0  0  0
  2  4  1  0  0  0
  4  5  2  0  0  0
  5  6  1  0  0  0
  6  7  2  0  0  0
  6 21  1  0  0  0
 21 22  1  0  0  0
 22 25  1  0  0  0
 25 26  1  0  0  0
 26 27  2  0  0  0
 21 23  2  0  0  0
 20 12  2  0  0  0
  7  1  1  0  0  0
 18 13  1  0  0  0
 10 11  1  0  0  0
 22 24  1  0  0  0
M  END
>  <minimizedAffinity>
-9.17493

>  <minimizedRMSD>
1.03817

$$$$
ChemDiv-G355-3295 MCULE-3753777032 MolPort-010-772-287 PubChem-50793999 ZINC000045995804 ZINC45995804


 31 34  0  0  0  0  0  0  0  0999 V2000
   17.4162  -10.2239   14.3018 C   0  0  0  0  0  0  0  0  0  0  0  0
   16.7515   -9.5265   15.3177 C   0  0  0  0  0  0  0  0  0  0  0  0
   16.7587   -9.9832   16.6421 C   0  0  0  0  0  0  0  0  0  0  0  0
   17.4466  -11.1558   16.9545 C   0  0  0  0  0  0  0  0  0  0  0  0
   18.1150  -11.8677   15.9584 C   0  0  0  0  0  0  0  0  0  0  0  0
   18.1083  -11.4193   14.6338 C   0  0  0  0  0  0  0  0  0  0  0  0
   18.8507  -12.2438   13.6391 C   0  0  0  0  0  0  0  0  0  0  0  0
   16.0919   -9.2733   17.6949 N   0  0  0  0  0  0  0  0  0  0  0  0
   15.2889   -8.0905   17.5614 C   0  0  0  0  0  0  0  0  0  0  0  0
   15.0606   -7.5942   16.4243 O   0  0  0  0  0  0  0  0  0  0  0  0
   16.1956   -9.6350   18.6047 H   0  0  0  0  0  0  0  0  0  0  0  0
   14.7212   -7.4542   18.7631 C   0  0  0  0  0  0  0  0  0  0  0  0
   15.4062   -7.5108   19.9857 C   0  0  0  0  0  0  0  0  0  0  0  0
   14.8682   -6.9062   21.1257 C   0  0  0  0  0  0  0  0  0  0  0  0
   15.7318   -6.9823   22.6455 Cl  0  0  0  0  0  0  0  0  0  0  0  0
   13.6414   -6.2412   21.0519 C   0  0  0  0  0  0  0  0  0  0  0  0
   12.9514   -6.1810   19.8382 C   0  0  0  0  0  0  0  0  0  0  0  0
   13.4899   -6.7841   18.6977 C   0  0  0  0  0  0  0  0  0  0  0  0
   17.3444   -9.6750   13.0111 O   0  0  0  0  0  0  0  0  0  0  0  0
   18.4383   -9.1342   12.2837 C   0  0  0  0  0  0  0  0  0  0  0  0
   18.8215   -7.9664    5.0833 C   0  0  0  0  0  0  0  0  0  0  0  0
   18.5500   -8.3240    6.5005 C   0  0  0  0  0  0  0  0  0  0  0  0
   19.3426   -7.9475    7.5904 C   0  0  0  0  0  0  0  0  0  0  0  0
   18.6478   -8.5345    8.6308 C   0  0  0  0  0  0  0  0  0  0  0  0
   18.9545   -8.5113    9.9511 N   0  0  0  0  0  0  0  0  0  0  0  0
   18.1363   -9.1664   10.8284 C   0  0  0  0  0  0  0  0  0  0  0  0
   16.9866   -9.8414   10.3683 C   0  0  0  0  0  0  0  0  0  0  0  0
   16.7134   -9.8389    8.9948 C   0  0  0  0  0  0  0  0  0  0  0  0
   15.7039  -10.4336    8.5339 O   0  0  0  0  0  0  0  0  0  0  0  0
   17.5685   -9.1784    8.1778 N   0  0  0  0  0  0  0  0  0  0  0  0
   17.5188   -9.0467    6.8916 O   0  0  0  0  0  0  0  0  0  0  0  0
 21 22  1  0  0  0
 22 23  2  0  0  0
 23 24  1  0  0  0
 24 25  2  0  0  0
 25 26  1  0  0  0
 26 20  1  0  0  0
 26 27  2  0  0  0
 20 19  1  0  0  0
 19  1  1  0  0  0
  1  2  2  0  0  0
  2  3  1  0  0  0
  3  8  1  0  0  0
  3  4  2  0  0  0
  8  9  1  0  0  0
  9 10  2  0  0  0
  9 12  1  0  0  0
 12 13  2  0  0  0
 13 14  1  0  0  0
 14 15  1  0  0  0
 14 16  2  0  0  0
 16 17  1  0  0  0
 17 18  2  0  0  0
 18 12  1  0  0  0
  4  5  1  0  0  0
  5  6  2  0  0  0
  6  7  1  0  0  0
  6  1  1  0  0  0
 27 28  1  0  0  0
 28 29  2  0  0  0
 28 30  1  0  0  0
 30 31  1  0  0  0
 30 24  1  0  0  0
 31 22  1  0  0  0
  8 11  1  0  0  0
M  END
>  <minimizedAffinity>
-9.17241

>  <minimizedRMSD>
1.07456

$$$$
ChemDiv-G756-0117 MCULE-2436251000 MolPort-010-686-751 PubChem-50802167 ZINC000033268503 ZINC33268503


 30 33  0  0  0  0  0  0  0  0999 V2000
   16.7856   -9.9061   16.9833 C   0  0  0  0  0  0  0  0  0  0  0  0
   16.8193   -9.4587   15.6536 C   0  0  0  0  0  0  0  0  0  0  0  0
   17.4671  -10.2057   14.6648 C   0  0  0  0  0  0  0  0  0  0  0  0
   18.0887  -11.4155   15.0120 C   0  0  0  0  0  0  0  0  0  0  0  0
   18.0590  -11.8668   16.3336 C   0  0  0  0  0  0  0  0  0  0  0  0
   17.4092  -11.1133   17.3147 C   0  0  0  0  0  0  0  0  0  0  0  0
   15.2695   -8.0227   17.8540 C   0  0  0  0  0  0  0  0  0  0  0  0
   15.0258   -7.5798   16.7003 O   0  0  0  0  0  0  0  0  0  0  0  0
   16.1294   -9.1621   18.0191 N   0  0  0  0  0  0  0  0  0  0  0  0
   16.2848   -9.4648   18.9429 H   0  0  0  0  0  0  0  0  0  0  0  0
   12.2951   -6.7742   17.6997 Cl  0  0  0  0  0  0  0  0  0  0  0  0
   13.3795   -6.8050   19.0844 C   0  0  0  0  0  0  0  0  0  0  0  0
   14.6774   -7.3805   19.0554 C   0  0  0  0  0  0  0  0  0  0  0  0
   15.4523   -7.3444   20.2266 C   0  0  0  0  0  0  0  0  0  0  0  0
   14.9664   -6.7586   21.3963 C   0  0  0  0  0  0  0  0  0  0  0  0
   13.6914   -6.1965   21.4148 C   0  0  0  0  0  0  0  0  0  0  0  0
   12.9042   -6.2209   20.2636 C   0  0  0  0  0  0  0  0  0  0  0  0
   17.4779   -9.7254   13.3529 O   0  0  0  0  0  0  0  0  0  0  0  0
   18.5566   -9.9617   12.4576 C   0  0  0  0  0  0  0  0  0  0  0  0
   18.1470   -9.5960   11.0762 C   0  0  0  0  0  0  0  0  0  0  0  0
   16.9277  -10.0381   10.5716 C   0  0  0  0  0  0  0  0  0  0  0  0
   16.5559   -9.6578    9.2831 C   0  0  0  0  0  0  0  0  0  0  0  0
   15.4528  -10.0612    8.8222 O   0  0  0  0  0  0  0  0  0  0  0  0
   17.3802   -8.8578    8.5377 N   0  0  0  0  0  0  0  0  0  0  0  0
   17.0147   -8.4854    7.2747 C   0  0  0  0  0  0  0  0  0  0  0  0
   17.8418   -7.6678    6.5025 C   0  0  0  0  0  0  0  0  0  0  0  0
   19.0539   -7.2286    7.0314 C   0  0  0  0  0  0  0  0  0  0  0  0
   19.4264   -7.6084    8.3196 C   0  0  0  0  0  0  0  0  0  0  0  0
   18.5774   -8.4280    9.0669 C   0  0  0  0  0  0  0  0  0  0  0  0
   18.9425   -8.7966   10.3221 N   0  0  0  0  0  0  0  0  0  0  0  0
 11 12  1  0  0  0
 12 13  2  0  0  0
 13 14  1  0  0  0
 13  7  1  0  0  0
 14 15  2  0  0  0
 15 16  1  0  0  0
 16 17  2  0  0  0
 17 12  1  0  0  0
  7  8  2  0  0  0
  7  9  1  0  0  0
  9  1  1  0  0  0
  1  2  2  0  0  0
  2  3  1  0  0  0
  3 18  1  0  0  0
  3  4  2  0  0  0
 18 19  1  0  0  0
 19 20  1  0  0  0
 20 21  2  0  0  0
 21 22  1  0  0  0
 22 23  2  0  0  0
 22 24  1  0  0  0
 24 25  1  0  0  0
 25 26  2  0  0  0
 26 27  1  0  0  0
 27 28  2  0  0  0
 28 29  1  0  0  0
 29 30  2  0  0  0
 29 24  1  0  0  0
 30 20  1  0  0  0
  4  5  1  0  0  0
  5  6  2  0  0  0
  6  1  1  0  0  0
  9 10  1  0  0  0
M  END
>  <minimizedAffinity>
-9.14537

>  <minimizedRMSD>
1.00592

$$$$
ChemDiv-G756-0975 CSC046601388 MCULE-1061533100 MolPort-010-744-684 PubChem-50802604 ZINC000033268603 ZINC33268603


 30 33  0  0  0  0  0  0  0  0999 V2000
   17.4505  -10.3267   14.3662 C   0  0  0  0  0  0  0  0  0  0  0  0
   18.1536  -11.4863   14.7289 C   0  0  0  0  0  0  0  0  0  0  0  0
   18.1866  -11.9002   16.0626 C   0  0  0  0  0  0  0  0  0  0  0  0
   17.5183  -11.1589   17.0406 C   0  0  0  0  0  0  0  0  0  0  0  0
   16.8135  -10.0017   16.6938 C   0  0  0  0  0  0  0  0  0  0  0  0
   16.7847   -9.5918   15.3521 C   0  0  0  0  0  0  0  0  0  0  0  0
   16.1412   -9.2682   17.7267 N   0  0  0  0  0  0  0  0  0  0  0  0
   15.3178   -8.1035   17.5604 C   0  0  0  0  0  0  0  0  0  0  0  0
   15.1160   -7.6183   16.4140 O   0  0  0  0  0  0  0  0  0  0  0  0
   16.2564   -9.5981   18.6471 H   0  0  0  0  0  0  0  0  0  0  0  0
   14.7023   -7.4701   18.7402 C   0  0  0  0  0  0  0  0  0  0  0  0
   13.4858   -6.7807   18.6233 C   0  0  0  0  0  0  0  0  0  0  0  0
   12.9028   -6.1804   19.7432 C   0  0  0  0  0  0  0  0  0  0  0  0
   13.5317   -6.2648   20.9882 C   0  0  0  0  0  0  0  0  0  0  0  0
   14.7435   -6.9493   21.1137 C   0  0  0  0  0  0  0  0  0  0  0  0
   15.3266   -7.5497   19.9939 C   0  0  0  0  0  0  0  0  0  0  0  0
   17.3976   -9.8849   13.0420 O   0  0  0  0  0  0  0  0  0  0  0  0
   18.5530   -9.4728   12.3234 C   0  0  0  0  0  0  0  0  0  0  0  0
   20.3016   -6.9516    5.6632 C   0  0  0  0  0  0  0  0  0  0  0  0
   19.3626   -7.6824    6.5531 C   0  0  0  0  0  0  0  0  0  0  0  0
   19.6610   -7.8383    7.9055 C   0  0  0  0  0  0  0  0  0  0  0  0
   18.7693   -8.5278    8.7304 C   0  0  0  0  0  0  0  0  0  0  0  0
   19.0617   -8.6785   10.0480 N   0  0  0  0  0  0  0  0  0  0  0  0
   18.2231   -9.3464   10.8793 C   0  0  0  0  0  0  0  0  0  0  0  0
   17.0336   -9.8760   10.3881 C   0  0  0  0  0  0  0  0  0  0  0  0
   16.7364   -9.7196    9.0352 C   0  0  0  0  0  0  0  0  0  0  0  0
   15.6606  -10.2031    8.5868 O   0  0  0  0  0  0  0  0  0  0  0  0
   17.6033   -9.0492    8.2140 N   0  0  0  0  0  0  0  0  0  0  0  0
   17.3108   -8.8963    6.8878 C   0  0  0  0  0  0  0  0  0  0  0  0
   18.1819   -8.2131    6.0374 C   0  0  0  0  0  0  0  0  0  0  0  0
 19 20  1  0  0  0
 20 21  2  0  0  0
 21 22  1  0  0  0
 22 23  2  0  0  0
 23 24  1  0  0  0
 24 18  1  0  0  0
 24 25  2  0  0  0
 18 17  1  0  0  0
 17  1  1  0  0  0
  1  2  2  0  0  0
  2  3  1  0  0  0
  3  4  2  0  0  0
  4  5  1  0  0  0
  5  7  1  0  0  0
  5  6  2  0  0  0
  7  8  1  0  0  0
  8  9  2  0  0  0
  8 11  1  0  0  0
 11 12  2  0  0  0
 12 13  1  0  0  0
 13 14  2  0  0  0
 14 15  1  0  0  0
 15 16  2  0  0  0
 16 11  1  0  0  0
  6  1  1  0  0  0
 25 26  1  0  0  0
 26 27  2  0  0  0
 26 28  1  0  0  0
 28 29  1  0  0  0
 28 22  1  0  0  0
 29 30  2  0  0  0
 30 20  1  0  0  0
  7 10  1  0  0  0
M  END
>  <minimizedAffinity>
-9.14376

>  <minimizedRMSD>
0.93213

$$$$
ChemDiv-C679-5375 CHEMBL1437588 MCULE-1237684829 MolPort-007-656-084 PubChem-16009492 ZINC000008603734 ZINC08603734


 30 33  0  0  0  0  0  0  0  0999 V2000
   16.7839   -9.4343   14.0569 C   0  0  0  0  0  0  0  0  0  0  0  0
   18.0851   -9.9610   14.0690 C   0  0  0  0  0  0  0  0  0  0  0  0
   18.7723  -10.1087   15.2762 C   0  0  0  0  0  0  0  0  0  0  0  0
   18.1645   -9.7315   16.4766 C   0  0  0  0  0  0  0  0  0  0  0  0
   16.8686   -9.2053   16.4796 C   0  0  0  0  0  0  0  0  0  0  0  0
   16.1842   -9.0597   15.2633 C   0  0  0  0  0  0  0  0  0  0  0  0
   16.2799   -8.8302   17.7325 N   0  0  0  0  0  0  0  0  0  0  0  0
   15.2066   -7.8978   17.9373 C   0  0  0  0  0  0  0  0  0  0  0  0
   14.6784   -7.3096   16.9552 O   0  0  0  0  0  0  0  0  0  0  0  0
   16.6510   -9.2574   18.5381 H   0  0  0  0  0  0  0  0  0  0  0  0
   14.7247   -7.6326   19.3116 C   0  0  0  0  0  0  0  0  0  0  0  0
   13.3603   -7.7324   19.6611 C   0  0  0  0  0  0  0  0  0  0  0  0
   12.4207   -8.0788   18.7462 F   0  0  0  0  0  0  0  0  0  0  0  0
   12.9514   -7.4722   20.9731 C   0  0  0  0  0  0  0  0  0  0  0  0
   13.8865   -7.1126   21.9454 C   0  0  0  0  0  0  0  0  0  0  0  0
   15.2372   -7.0115   21.6093 C   0  0  0  0  0  0  0  0  0  0  0  0
   15.6522   -7.2699   20.3009 C   0  0  0  0  0  0  0  0  0  0  0  0
   16.0689   -9.2733   12.8676 O   0  0  0  0  0  0  0  0  0  0  0  0
   15.9894  -10.2888   11.8761 C   0  0  0  0  0  0  0  0  0  0  0  0
   18.4512   -8.5832    5.9221 C   0  0  0  0  0  0  0  0  0  0  0  0
   18.6960   -8.3843    7.3804 C   0  0  0  0  0  0  0  0  0  0  0  0
   19.7590   -7.5945    7.8284 C   0  0  0  0  0  0  0  0  0  0  0  0
   19.7178   -7.6025    9.5204 S   0  0  0  0  0  0  0  0  0  0  0  0
   18.3737   -8.5936    9.5969 C   0  0  0  0  0  0  0  0  0  0  0  0
   17.7685   -9.0232   10.7310 N   0  0  0  0  0  0  0  0  0  0  0  0
   16.6794   -9.8339   10.6403 C   0  0  0  0  0  0  0  0  0  0  0  0
   16.1804  -10.2068    9.3851 C   0  0  0  0  0  0  0  0  0  0  0  0
   16.8294   -9.7447    8.2352 C   0  0  0  0  0  0  0  0  0  0  0  0
   16.3917  -10.0770    7.1017 O   0  0  0  0  0  0  0  0  0  0  0  0
   17.9268   -8.9386    8.3688 N   0  0  0  0  0  0  0  0  0  0  0  0
 20 21  1  0  0  0
 21 22  2  0  0  0
 22 23  1  0  0  0
 23 24  1  0  0  0
 24 25  2  0  0  0
 25 26  1  0  0  0
 26 19  1  0  0  0
 26 27  2  0  0  0
 19 18  1  0  0  0
 18  1  1  0  0  0
  1  2  2  0  0  0
  2  3  1  0  0  0
  3  4  2  0  0  0
  4  5  1  0  0  0
  5  7  1  0  0  0
  5  6  2  0  0  0
  7  8  1  0  0  0
  8  9  2  0  0  0
  8 11  1  0  0  0
 11 12  2  0  0  0
 12 13  1  0  0  0
 12 14  1  0  0  0
 14 15  2  0  0  0
 15 16  1  0  0  0
 16 17  2  0  0  0
 17 11  1  0  0  0
  6  1  1  0  0  0
 27 28  1  0  0  0
 28 29  2  0  0  0
 28 30  1  0  0  0
 30 21  1  0  0  0
 30 24  1  0  0  0
  7 10  1  0  0  0
M  END
>  <minimizedAffinity>
-9.12800

>  <minimizedRMSD>
1.64857

$$$$
ChemDiv-F172-0363 MCULE-9943680953 MolPort-010-736-236 PubChem-50764217 ZINC000035378620 ZINC35378620


 34 37  0  0  0  0  0  0  0  0999 V2000
   17.4173  -10.2581   14.3771 C   0  0  0  0  0  0  0  0  0  0  0  0
   16.8593   -9.4162   15.3462 C   0  0  0  0  0  0  0  0  0  0  0  0
   16.8441   -9.7715   16.7013 C   0  0  0  0  0  0  0  0  0  0  0  0
   17.3976  -10.9909   17.0920 C   0  0  0  0  0  0  0  0  0  0  0  0
   17.9603  -11.8452   16.1435 C   0  0  0  0  0  0  0  0  0  0  0  0
   17.9782  -11.4959   14.7897 C   0  0  0  0  0  0  0  0  0  0  0  0
   18.6034  -12.4686   13.8501 C   0  0  0  0  0  0  0  0  0  0  0  0
   16.2738   -8.9191   17.7036 N   0  0  0  0  0  0  0  0  0  0  0  0
   15.2209   -7.9644   17.5183 C   0  0  0  0  0  0  0  0  0  0  0  0
   14.7021   -7.7727   16.3870 O   0  0  0  0  0  0  0  0  0  0  0  0
   16.6436   -8.9978   18.6126 H   0  0  0  0  0  0  0  0  0  0  0  0
   14.7609   -7.1554   18.6770 C   0  0  0  0  0  0  0  0  0  0  0  0
   15.2883   -7.7010   19.8776 O   0  0  0  0  0  0  0  0  0  0  0  0
   15.3814   -7.0317   21.1092 C   0  0  0  0  0  0  0  0  0  0  0  0
   14.2677   -6.6243   21.8966 C   0  0  0  0  0  0  0  0  0  0  0  0
   12.8568   -6.8509   21.4519 C   0  0  0  0  0  0  0  0  0  0  0  0
   14.4938   -5.9635   23.1238 C   0  0  0  0  0  0  0  0  0  0  0  0
   13.3658   -5.5149   23.9926 C   0  0  0  0  0  0  0  0  0  0  0  0
   15.7965   -5.7069   23.5547 C   0  0  0  0  0  0  0  0  0  0  0  0
   16.8843   -6.0983   22.7789 C   0  0  0  0  0  0  0  0  0  0  0  0
   16.6742   -6.7534   21.5669 C   0  0  0  0  0  0  0  0  0  0  0  0
   17.3775   -9.8014   13.0498 O   0  0  0  0  0  0  0  0  0  0  0  0
   18.4816   -9.2833   12.3218 C   0  0  0  0  0  0  0  0  0  0  0  0
   18.7759   -7.8855    5.1594 C   0  0  0  0  0  0  0  0  0  0  0  0
   18.5205   -8.2868    6.5676 C   0  0  0  0  0  0  0  0  0  0  0  0
   19.3463   -7.9767    7.6535 C   0  0  0  0  0  0  0  0  0  0  0  0
   18.6525   -8.5779    8.6862 C   0  0  0  0  0  0  0  0  0  0  0  0
   18.9811   -8.6063   10.0011 N   0  0  0  0  0  0  0  0  0  0  0  0
   18.1568   -9.2629   10.8714 C   0  0  0  0  0  0  0  0  0  0  0  0
   16.9783   -9.8853   10.4107 C   0  0  0  0  0  0  0  0  0  0  0  0
   16.6814   -9.8278    9.0435 C   0  0  0  0  0  0  0  0  0  0  0  0
   15.6429  -10.3705    8.5830 O   0  0  0  0  0  0  0  0  0  0  0  0
   17.5437   -9.1693    8.2328 N   0  0  0  0  0  0  0  0  0  0  0  0
   17.4728   -8.9879    6.9539 O   0  0  0  0  0  0  0  0  0  0  0  0
 24 25  1  0  0  0
 25 26  2  0  0  0
 26 27  1  0  0  0
 27 28  2  0  0  0
 28 29  1  0  0  0
 29 23  1  0  0  0
 29 30  2  0  0  0
 23 22  1  0  0  0
 22  1  1  0  0  0
  1  2  2  0  0  0
  2  3  1  0  0  0
  3  8  1  0  0  0
  3  4  2  0  0  0
  8  9  1  0  0  0
  9 10  2  0  0  0
  9 12  1  0  0  0
 12 13  1  0  0  0
 13 14  1  0  0  0
 14 15  2  0  0  0
 15 16  1  0  0  0
 15 17  1  0  0  0
 17 18  1  0  0  0
 17 19  2  0  0  0
 19 20  1  0  0  0
 20 21  2  0  0  0
 21 14  1  0  0  0
  4  5  1  0  0  0
  5  6  2  0  0  0
  6  7  1  0  0  0
  6  1  1  0  0  0
 30 31  1  0  0  0
 31 32  2  0  0  0
 31 33  1  0  0  0
 33 34  1  0  0  0
 33 27  1  0  0  0
 34 25  1  0  0  0
  8 11  1  0  0  0
M  END
>  <minimizedAffinity>
-9.12653

>  <minimizedRMSD>
1.69895

$$$$
ChemDiv-G355-3274 MCULE-5581334024 MolPort-010-743-031 PubChem-50793959 ZINC000035428419


 33 36  0  0  0  0  0  0  0  0999 V2000
   17.4994  -10.2683   14.1954 C   0  0  0  0  0  0  0  0  0  0  0  0
   18.0966  -11.5260   14.4760 C   0  0  0  0  0  0  0  0  0  0  0  0
   18.7026  -12.3992   13.4318 C   0  0  0  0  0  0  0  0  0  0  0  0
   18.1309  -11.9959   15.7924 C   0  0  0  0  0  0  0  0  0  0  0  0
   17.5854  -11.2423   16.8320 C   0  0  0  0  0  0  0  0  0  0  0  0
   16.9967  -10.0050   16.5711 C   0  0  0  0  0  0  0  0  0  0  0  0
   16.9582   -9.5295   15.2539 C   0  0  0  0  0  0  0  0  0  0  0  0
   16.4420   -9.2606   17.6635 N   0  0  0  0  0  0  0  0  0  0  0  0
   15.5469   -8.1448   17.5747 C   0  0  0  0  0  0  0  0  0  0  0  0
   15.1800   -7.6871   16.4601 O   0  0  0  0  0  0  0  0  0  0  0  0
   16.7031   -9.5455   18.5690 H   0  0  0  0  0  0  0  0  0  0  0  0
   15.0188   -7.5332   18.8267 C   0  0  0  0  0  0  0  0  0  0  0  0
   14.1358   -6.4590   18.5179 O   0  0  0  0  0  0  0  0  0  0  0  0
   12.7540   -6.5130   18.7331 C   0  0  0  0  0  0  0  0  0  0  0  0
   12.1353   -5.4672   19.4266 C   0  0  0  0  0  0  0  0  0  0  0  0
   10.7564   -5.4911   19.6576 C   0  0  0  0  0  0  0  0  0  0  0  0
    9.9882   -6.5636   19.1955 C   0  0  0  0  0  0  0  0  0  0  0  0
   10.5989   -7.6131   18.5038 C   0  0  0  0  0  0  0  0  0  0  0  0
    9.7835   -8.7536   18.0113 C   0  0  0  0  0  0  0  0  0  0  0  0
   11.9772   -7.5897   18.2744 C   0  0  0  0  0  0  0  0  0  0  0  0
   17.4058   -9.6953   12.9168 O   0  0  0  0  0  0  0  0  0  0  0  0
   18.4723   -9.0814   12.2074 C   0  0  0  0  0  0  0  0  0  0  0  0
   17.6580   -9.1625    8.0913 N   0  0  0  0  0  0  0  0  0  0  0  0
   17.6152   -9.0276    6.8055 O   0  0  0  0  0  0  0  0  0  0  0  0
   18.6254   -8.2698    6.4260 C   0  0  0  0  0  0  0  0  0  0  0  0
   19.3943   -7.8700    7.5243 C   0  0  0  0  0  0  0  0  0  0  0  0
   18.7101   -8.4833    8.5563 C   0  0  0  0  0  0  0  0  0  0  0  0
   18.9985   -8.4470    9.8804 N   0  0  0  0  0  0  0  0  0  0  0  0
   18.1927   -9.1291   10.7482 C   0  0  0  0  0  0  0  0  0  0  0  0
   17.0731   -9.8442   10.2751 C   0  0  0  0  0  0  0  0  0  0  0  0
   16.8163   -9.8512    8.8986 C   0  0  0  0  0  0  0  0  0  0  0  0
   15.8314  -10.4776    8.4269 O   0  0  0  0  0  0  0  0  0  0  0  0
   18.8973   -7.8977    5.0128 C   0  0  0  0  0  0  0  0  0  0  0  0
 23 24  1  0  0  0
 24 25  1  0  0  0
 25 26  2  0  0  0
 26 27  1  0  0  0
 27 28  2  0  0  0
 28 29  1  0  0  0
 29 22  1  0  0  0
 22 21  1  0  0  0
 21  1  1  0  0  0
  1  2  2  0  0  0
  2  3  1  0  0  0
  2  4  1  0  0  0
  4  5  2  0  0  0
  5  6  1  0  0  0
  6  7  2  0  0  0
  6  8  1  0  0  0
  8  9  1  0  0  0
  9 12  1  0  0  0
 12 13  1  0  0  0
 13 14  1  0  0  0
 14 15  2  0  0  0
 15 16  1  0  0  0
 16 17  2  0  0  0
 17 18  1  0  0  0
 18 19  1  0  0  0
 18 20  2  0  0  0
  9 10  2  0  0  0
 29 30  2  0  0  0
 30 31  1  0  0  0
 31 32  2  0  0  0
 25 33  1  0  0  0
 27 23  1  0  0  0
  7  1  1  0  0  0
 20 14  1  0  0  0
 31 23  1  0  0  0
  8 11  1  0  0  0
M  END
>  <minimizedAffinity>
-9.11910

>  <minimizedRMSD>
1.73702

$$$$
ChemDiv-G357-0507 MCULE-2727958890 MolPort-007-847-209 PubChem-46343281 ZINC000015771603


 33 36  0  0  0  0  0  0  0  0999 V2000
   17.6653  -10.2571   14.6293 C   0  0  0  0  0  0  0  0  0  0  0  0
   17.0667   -8.9939   14.5387 C   0  0  0  0  0  0  0  0  0  0  0  0
   16.5061   -8.3965   15.6707 C   0  0  0  0  0  0  0  0  0  0  0  0
   16.5365   -9.0544   16.9092 C   0  0  0  0  0  0  0  0  0  0  0  0
   17.1343  -10.3156   16.9983 C   0  0  0  0  0  0  0  0  0  0  0  0
   17.6955  -10.9146   15.8668 C   0  0  0  0  0  0  0  0  0  0  0  0
   15.9720   -8.4740   18.0930 N   0  0  0  0  0  0  0  0  0  0  0  0
   14.7745   -7.6851   18.1838 C   0  0  0  0  0  0  0  0  0  0  0  0
   14.1018   -7.4403   17.1475 O   0  0  0  0  0  0  0  0  0  0  0  0
   16.4577   -8.6332   18.9344 H   0  0  0  0  0  0  0  0  0  0  0  0
   14.3461   -7.1666   19.5081 C   0  0  0  0  0  0  0  0  0  0  0  0
   15.1198   -7.5140   20.6280 C   0  0  0  0  0  0  0  0  0  0  0  0
   14.7827   -7.0660   21.9060 C   0  0  0  0  0  0  0  0  0  0  0  0
   13.6609   -6.2595   22.0866 C   0  0  0  0  0  0  0  0  0  0  0  0
   12.8776   -5.9019   20.9893 C   0  0  0  0  0  0  0  0  0  0  0  0
   13.2046   -6.3444   19.7027 C   0  0  0  0  0  0  0  0  0  0  0  0
   12.1412   -5.8280   18.4002 Cl  0  0  0  0  0  0  0  0  0  0  0  0
   18.2545  -10.8822   13.4342 C   0  0  0  0  0  0  0  0  0  0  0  0
   18.6305  -12.0866   13.4708 O   0  0  0  0  0  0  0  0  0  0  0  0
   18.3948  -10.1365   12.2617 O   0  0  0  0  0  0  0  0  0  0  0  0
   17.2984   -9.4576   11.6672 C   0  0  0  0  0  0  0  0  0  0  0  0
   17.9727   -8.9264    7.5390 N   0  0  0  0  0  0  0  0  0  0  0  0
   18.2971   -8.6509    6.2780 N   0  0  0  0  0  0  0  0  0  0  0  0
   19.3002   -7.7434    6.1980 C   0  0  0  0  0  0  0  0  0  0  0  0
   19.8427   -7.2537    7.7302 S   0  0  0  0  0  0  0  0  0  0  0  0
   18.7079   -8.2591    8.4533 C   0  0  0  0  0  0  0  0  0  0  0  0
   18.5105   -8.4232    9.7842 N   0  0  0  0  0  0  0  0  0  0  0  0
   17.5480   -9.2888   10.2114 C   0  0  0  0  0  0  0  0  0  0  0  0
   16.7618   -9.9907    9.2827 C   0  0  0  0  0  0  0  0  0  0  0  0
   16.9974   -9.7941    7.9175 C   0  0  0  0  0  0  0  0  0  0  0  0
   16.3129  -10.4122    7.0595 O   0  0  0  0  0  0  0  0  0  0  0  0
   19.8882   -7.2866    4.9101 C   0  0  0  0  0  0  0  0  0  0  0  0
   21.3804   -7.0764    5.0713 C   0  0  0  0  0  0  0  0  0  0  0  0
 22 23  1  0  0  0
 23 24  2  0  0  0
 24 25  1  0  0  0
 25 26  1  0  0  0
 26 27  2  0  0  0
 27 28  1  0  0  0
 28 21  1  0  0  0
 21 20  1  0  0  0
 20 18  1  0  0  0
 18 19  2  0  0  0
 18  1  1  0  0  0
  1  2  2  0  0  0
  2  3  1  0  0  0
  3  4  2  0  0  0
  4  5  1  0  0  0
  5  6  2  0  0  0
  4  7  1  0  0  0
  7  8  1  0  0  0
  8  9  2  0  0  0
  8 11  1  0  0  0
 11 12  2  0  0  0
 12 13  1  0  0  0
 13 14  2  0  0  0
 14 15  1  0  0  0
 15 16  2  0  0  0
 16 17  1  0  0  0
 28 29  2  0  0  0
 29 30  1  0  0  0
 30 31  2  0  0  0
 24 32  1  0  0  0
 32 33  1  0  0  0
 26 22  1  0  0  0
  6  1  1  0  0  0
 16 11  1  0  0  0
 30 22  1  0  0  0
  7 10  1  0  0  0
M  END
>  <minimizedAffinity>
-9.11838

>  <minimizedRMSD>
1.04189

$$$$
ChemDiv-G357-2498 CHEMBL1325412 MCULE-7972144130 MolPort-007-847-833 PubChem-16027579 ZINC000008607431


 35 39  0  0  0  0  0  0  0  0999 V2000
   17.8821  -10.7296   13.3622 C   0  0  0  0  0  0  0  0  0  0  0  0
   18.1956  -11.9523   13.3480 O   0  0  0  0  0  0  0  0  0  0  0  0
   17.3871  -10.1095   14.6017 C   0  0  0  0  0  0  0  0  0  0  0  0
   16.7479   -8.8639   14.5573 C   0  0  0  0  0  0  0  0  0  0  0  0
   16.2752   -8.2716   15.7314 C   0  0  0  0  0  0  0  0  0  0  0  0
   16.4355   -8.9173   16.9663 C   0  0  0  0  0  0  0  0  0  0  0  0
   17.0740  -10.1609   17.0095 C   0  0  0  0  0  0  0  0  0  0  0  0
   17.5472  -10.7547   15.8358 C   0  0  0  0  0  0  0  0  0  0  0  0
   15.9642   -8.3411   18.1921 N   0  0  0  0  0  0  0  0  0  0  0  0
   14.7503   -7.5984   18.3847 C   0  0  0  0  0  0  0  0  0  0  0  0
   13.9631   -7.3937   17.4208 O   0  0  0  0  0  0  0  0  0  0  0  0
   16.5331   -8.4682   18.9855 H   0  0  0  0  0  0  0  0  0  0  0  0
   14.4208   -7.0720   19.7210 C   0  0  0  0  0  0  0  0  0  0  0  0
   13.2285   -6.3627   19.9311 C   0  0  0  0  0  0  0  0  0  0  0  0
   12.9164   -5.8646   21.1995 C   0  0  0  0  0  0  0  0  0  0  0  0
   13.7940   -6.0715   22.2670 C   0  0  0  0  0  0  0  0  0  0  0  0
   14.9839   -6.7764   22.0665 C   0  0  0  0  0  0  0  0  0  0  0  0
   15.2961   -7.2746   20.7981 C   0  0  0  0  0  0  0  0  0  0  0  0
   13.4614   -5.5436   23.6157 C   0  0  0  0  0  0  0  0  0  0  0  0
   18.0026   -9.9587   12.2038 O   0  0  0  0  0  0  0  0  0  0  0  0
   16.8910   -9.6859   11.3636 C   0  0  0  0  0  0  0  0  0  0  0  0
   18.2246   -8.7511    7.4629 N   0  0  0  0  0  0  0  0  0  0  0  0
   18.8192   -8.3230    6.3089 C   0  0  0  0  0  0  0  0  0  0  0  0
   18.3409   -8.6532    4.9216 C   0  0  0  0  0  0  0  0  0  0  0  0
   19.4655   -8.4662    3.8999 C   0  0  0  0  0  0  0  0  0  0  0  0
   20.0944   -7.0791    4.0508 C   0  0  0  0  0  0  0  0  0  0  0  0
   20.7629   -6.9120    5.4211 C   0  0  0  0  0  0  0  0  0  0  0  0
   19.9114   -7.4795    6.5158 C   0  0  0  0  0  0  0  0  0  0  0  0
   20.1748   -7.2917    8.1720 S   0  0  0  0  0  0  0  0  0  0  0  0
   18.8617   -8.2692    8.5587 C   0  0  0  0  0  0  0  0  0  0  0  0
   18.4488   -8.5675    9.8147 N   0  0  0  0  0  0  0  0  0  0  0  0
   17.3696   -9.3779    9.9902 C   0  0  0  0  0  0  0  0  0  0  0  0
   16.6811   -9.8868    8.8809 C   0  0  0  0  0  0  0  0  0  0  0  0
   17.1316   -9.5613    7.5976 C   0  0  0  0  0  0  0  0  0  0  0  0
   16.5246  -10.0180    6.5926 O   0  0  0  0  0  0  0  0  0  0  0  0
 22 23  1  0  0  0
 23 24  1  0  0  0
 24 25  1  0  0  0
 25 26  1  0  0  0
 26 27  1  0  0  0
 27 28  1  0  0  0
 28 29  1  0  0  0
 29 30  1  0  0  0
 30 31  2  0  0  0
 31 32  1  0  0  0
 32 21  1  0  0  0
 21 20  1  0  0  0
 20  1  1  0  0  0
  1  2  2  0  0  0
  1  3  1  0  0  0
  3  4  2  0  0  0
  4  5  1  0  0  0
  5  6  2  0  0  0
  6  7  1  0  0  0
  7  8  2  0  0  0
  6  9  1  0  0  0
  9 10  1  0  0  0
 10 11  2  0  0  0
 10 13  1  0  0  0
 13 14  2  0  0  0
 14 15  1  0  0  0
 15 16  2  0  0  0
 16 17  1  0  0  0
 17 18  2  0  0  0
 16 19  1  0  0  0
 32 33  2  0  0  0
 33 34  1  0  0  0
 34 35  2  0  0  0
 30 22  1  0  0  0
  8  3  1  0  0  0
 18 13  1  0  0  0
 34 22  1  0  0  0
 28 23  2  0  0  0
  9 12  1  0  0  0
M  END
>  <minimizedAffinity>
-9.11491

>  <minimizedRMSD>
1.24313

$$$$
ChemDiv-G756-0218 MCULE-8728008036 MolPort-007-879-035 PubChem-46355927 ZINC000021156670 ZINC21156670


 32 35  0  0  0  0  0  0  0  0999 V2000
   16.8324   -9.5634   17.0578 C   0  0  0  0  0  0  0  0  0  0  0  0
   16.9192   -9.1463   15.7208 C   0  0  0  0  0  0  0  0  0  0  0  0
   17.4969   -9.9718   14.7510 C   0  0  0  0  0  0  0  0  0  0  0  0
   17.9936  -11.2302   15.1251 C   0  0  0  0  0  0  0  0  0  0  0  0
   17.9104  -11.6520   16.4542 C   0  0  0  0  0  0  0  0  0  0  0  0
   17.3310  -10.8202   17.4159 C   0  0  0  0  0  0  0  0  0  0  0  0
   14.6200   -7.1882   19.0914 N   0  0  0  0  0  0  0  0  0  0  0  0
   15.0647   -7.9336   17.9509 C   0  0  0  0  0  0  0  0  0  0  0  0
   14.4323   -7.8808   16.8619 O   0  0  0  0  0  0  0  0  0  0  0  0
   16.2430   -8.7403   18.0738 N   0  0  0  0  0  0  0  0  0  0  0  0
   15.1575   -7.2762   19.9115 H   0  0  0  0  0  0  0  0  0  0  0  0
   16.6956   -8.7281   18.9480 H   0  0  0  0  0  0  0  0  0  0  0  0
   10.1925   -3.7913   19.4817 F   0  0  0  0  0  0  0  0  0  0  0  0
   11.2609   -4.6174   19.3776 C   0  0  0  0  0  0  0  0  0  0  0  0
   12.2217   -4.6485   20.3917 C   0  0  0  0  0  0  0  0  0  0  0  0
   13.3246   -5.5013   20.2839 C   0  0  0  0  0  0  0  0  0  0  0  0
   13.4748   -6.3277   19.1646 C   0  0  0  0  0  0  0  0  0  0  0  0
   12.5057   -6.2907   18.1497 C   0  0  0  0  0  0  0  0  0  0  0  0
   11.4027   -5.4386   18.2561 C   0  0  0  0  0  0  0  0  0  0  0  0
   17.5638   -9.5197   13.4307 O   0  0  0  0  0  0  0  0  0  0  0  0
   18.5238  -10.0043   12.5011 C   0  0  0  0  0  0  0  0  0  0  0  0
   18.1172   -9.6273   11.1218 C   0  0  0  0  0  0  0  0  0  0  0  0
   16.9024  -10.0716   10.6085 C   0  0  0  0  0  0  0  0  0  0  0  0
   16.5330   -9.6809    9.3224 C   0  0  0  0  0  0  0  0  0  0  0  0
   15.4341  -10.0862    8.8534 O   0  0  0  0  0  0  0  0  0  0  0  0
   17.3553   -8.8687    8.5879 N   0  0  0  0  0  0  0  0  0  0  0  0
   16.9921   -8.4862    7.3272 C   0  0  0  0  0  0  0  0  0  0  0  0
   17.8173   -7.6565    6.5661 C   0  0  0  0  0  0  0  0  0  0  0  0
   19.0248   -7.2155    7.1037 C   0  0  0  0  0  0  0  0  0  0  0  0
   19.3950   -7.6056    8.3895 C   0  0  0  0  0  0  0  0  0  0  0  0
   18.5479   -8.4371    9.1258 C   0  0  0  0  0  0  0  0  0  0  0  0
   18.9105   -8.8158   10.3786 N   0  0  0  0  0  0  0  0  0  0  0  0
 13 14  1  0  0  0
 14 15  2  0  0  0
 15 16  1  0  0  0
 16 17  2  0  0  0
 17  7  1  0  0  0
 17 18  1  0  0  0
  7  8  1  0  0  0
  8  9  2  0  0  0
  8 10  1  0  0  0
 10  1  1  0  0  0
  1  2  2  0  0  0
  2  3  1  0  0  0
  3 20  1  0  0  0
  3  4  2  0  0  0
 20 21  1  0  0  0
 21 22  1  0  0  0
 22 23  2  0  0  0
 23 24  1  0  0  0
 24 25  2  0  0  0
 24 26  1  0  0  0
 26 27  1  0  0  0
 27 28  2  0  0  0
 28 29  1  0  0  0
 29 30  2  0  0  0
 30 31  1  0  0  0
 31 32  2  0  0  0
 31 26  1  0  0  0
 32 22  1  0  0  0
  4  5  1  0  0  0
  5  6  2  0  0  0
  6  1  1  0  0  0
 18 19  2  0  0  0
 19 14  1  0  0  0
  7 11  1  0  0  0
 10 12  1  0  0  0
M  END
>  <minimizedAffinity>
-9.10308

>  <minimizedRMSD>
1.27868

$$$$
ChemDiv-C679-5362 MCULE-7814480141 MolPort-007-656-081 PubChem-46258459 ZINC000021369051 ZINC21369051


 30 33  0  0  0  0  0  0  0  0999 V2000
   16.7773   -9.4282   14.0664 C   0  0  0  0  0  0  0  0  0  0  0  0
   18.0788   -9.9536   14.0834 C   0  0  0  0  0  0  0  0  0  0  0  0
   18.7609  -10.1021   15.2934 C   0  0  0  0  0  0  0  0  0  0  0  0
   18.1480   -9.7269   16.4917 C   0  0  0  0  0  0  0  0  0  0  0  0
   16.8526   -9.1990   16.4894 C   0  0  0  0  0  0  0  0  0  0  0  0
   16.1730   -9.0531   15.2704 C   0  0  0  0  0  0  0  0  0  0  0  0
   16.2594   -8.8223   17.7398 N   0  0  0  0  0  0  0  0  0  0  0  0
   15.1890   -7.8852   17.9410 C   0  0  0  0  0  0  0  0  0  0  0  0
   14.6608   -7.3077   16.9537 O   0  0  0  0  0  0  0  0  0  0  0  0
   16.6248   -9.2519   18.5467 H   0  0  0  0  0  0  0  0  0  0  0  0
   14.7037   -7.6235   19.3186 C   0  0  0  0  0  0  0  0  0  0  0  0
   13.3372   -7.6950   19.6964 C   0  0  0  0  0  0  0  0  0  0  0  0
   12.0368   -8.0664   18.5719 Cl  0  0  0  0  0  0  0  0  0  0  0  0
   12.9675   -7.4336   21.0204 C   0  0  0  0  0  0  0  0  0  0  0  0
   13.9280   -7.1028   21.9764 C   0  0  0  0  0  0  0  0  0  0  0  0
   15.2718   -7.0263   21.6137 C   0  0  0  0  0  0  0  0  0  0  0  0
   15.6537   -7.2842   20.2958 C   0  0  0  0  0  0  0  0  0  0  0  0
   16.0655   -9.2699   12.8748 O   0  0  0  0  0  0  0  0  0  0  0  0
   15.9883  -10.2879   11.8852 C   0  0  0  0  0  0  0  0  0  0  0  0
   18.4502   -8.5899    5.9288 C   0  0  0  0  0  0  0  0  0  0  0  0
   18.6940   -8.3869    7.3872 C   0  0  0  0  0  0  0  0  0  0  0  0
   19.7576   -7.5973    7.8340 C   0  0  0  0  0  0  0  0  0  0  0  0
   19.7169   -7.6038    9.5264 S   0  0  0  0  0  0  0  0  0  0  0  0
   18.3729   -8.5944    9.6043 C   0  0  0  0  0  0  0  0  0  0  0  0
   17.7686   -9.0236   10.7392 N   0  0  0  0  0  0  0  0  0  0  0  0
   16.6785   -9.8333   10.6495 C   0  0  0  0  0  0  0  0  0  0  0  0
   16.1788  -10.2064    9.3946 C   0  0  0  0  0  0  0  0  0  0  0  0
   16.8271   -9.7452    8.2440 C   0  0  0  0  0  0  0  0  0  0  0  0
   16.3872  -10.0760    7.1110 O   0  0  0  0  0  0  0  0  0  0  0  0
   17.9250   -8.9398    8.3766 N   0  0  0  0  0  0  0  0  0  0  0  0
 20 21  1  0  0  0
 21 22  2  0  0  0
 22 23  1  0  0  0
 23 24  1  0  0  0
 24 25  2  0  0  0
 25 26  1  0  0  0
 26 19  1  0  0  0
 26 27  2  0  0  0
 19 18  1  0  0  0
 18  1  1  0  0  0
  1  2  2  0  0  0
  2  3  1  0  0  0
  3  4  2  0  0  0
  4  5  1  0  0  0
  5  7  1  0  0  0
  5  6  2  0  0  0
  7  8  1  0  0  0
  8  9  2  0  0  0
  8 11  1  0  0  0
 11 12  2  0  0  0
 12 13  1  0  0  0
 12 14  1  0  0  0
 14 15  2  0  0  0
 15 16  1  0  0  0
 16 17  2  0  0  0
 17 11  1  0  0  0
  6  1  1  0  0  0
 27 28  1  0  0  0
 28 29  2  0  0  0
 28 30  1  0  0  0
 30 21  1  0  0  0
 30 24  1  0  0  0
  7 10  1  0  0  0
M  END
>  <minimizedAffinity>
-9.10007

>  <minimizedRMSD>
1.75423

$$$$
ChemDiv-G756-2286 MCULE-7462240674 MolPort-010-744-732 PubChem-50802556 ZINC000033268658 ZINC33268658


 33 36  0  0  0  0  0  0  0  0999 V2000
   16.7937   -9.3730   16.6339 C   0  0  0  0  0  0  0  0  0  0  0  0
   16.4524   -8.9734   15.3329 C   0  0  0  0  0  0  0  0  0  0  0  0
   17.0896   -9.5362   14.2226 C   0  0  0  0  0  0  0  0  0  0  0  0
   18.0806  -10.5111   14.4180 C   0  0  0  0  0  0  0  0  0  0  0  0
   18.4259  -10.9130   15.7106 C   0  0  0  0  0  0  0  0  0  0  0  0
   17.7839  -10.3443   16.8138 C   0  0  0  0  0  0  0  0  0  0  0  0
   15.0717   -7.8748   17.8086 C   0  0  0  0  0  0  0  0  0  0  0  0
   14.5475   -7.4800   16.7315 O   0  0  0  0  0  0  0  0  0  0  0  0
   16.1612   -8.8103   17.7915 N   0  0  0  0  0  0  0  0  0  0  0  0
   16.5107   -9.0953   18.6666 H   0  0  0  0  0  0  0  0  0  0  0  0
   13.5848   -6.4086   21.5536 C   0  0  0  0  0  0  0  0  0  0  0  0
   12.8516   -6.2153   20.3791 C   0  0  0  0  0  0  0  0  0  0  0  0
   13.3352   -6.6935   19.1579 C   0  0  0  0  0  0  0  0  0  0  0  0
   14.5602   -7.3735   19.0965 C   0  0  0  0  0  0  0  0  0  0  0  0
   15.2939   -7.5691   20.2746 C   0  0  0  0  0  0  0  0  0  0  0  0
   14.8102   -7.0913   21.4955 C   0  0  0  0  0  0  0  0  0  0  0  0
   13.0709   -5.9205   22.7605 O   0  0  0  0  0  0  0  0  0  0  0  0
   14.2439   -4.0874   23.8092 C   0  0  0  0  0  0  0  0  0  0  0  0
   13.8853   -5.5609   23.8718 C   0  0  0  0  0  0  0  0  0  0  0  0
   16.7214   -9.1101   12.9441 O   0  0  0  0  0  0  0  0  0  0  0  0
   16.1749   -9.9887   11.9692 C   0  0  0  0  0  0  0  0  0  0  0  0
   16.7509   -9.6727   10.6355 C   0  0  0  0  0  0  0  0  0  0  0  0
   16.1996  -10.2357    9.4885 C   0  0  0  0  0  0  0  0  0  0  0  0
   16.7417   -9.9011    8.2486 C   0  0  0  0  0  0  0  0  0  0  0  0
   16.2456  -10.4128    7.2073 O   0  0  0  0  0  0  0  0  0  0  0  0
   17.7939   -9.0279    8.1713 N   0  0  0  0  0  0  0  0  0  0  0  0
   18.3233   -8.6992    6.9551 C   0  0  0  0  0  0  0  0  0  0  0  0
   19.3938   -7.8087    6.8599 C   0  0  0  0  0  0  0  0  0  0  0  0
   20.0621   -7.3971    5.2960 Cl  0  0  0  0  0  0  0  0  0  0  0  0
   19.9249   -7.2494    8.0200 C   0  0  0  0  0  0  0  0  0  0  0  0
   19.3842   -7.5846    9.2599 C   0  0  0  0  0  0  0  0  0  0  0  0
   18.3137   -8.4800    9.3236 C   0  0  0  0  0  0  0  0  0  0  0  0
   17.7882   -8.8045   10.5330 N   0  0  0  0  0  0  0  0  0  0  0  0
 18 19  1  0  0  0
 19 17  1  0  0  0
 17 11  1  0  0  0
 11 12  2  0  0  0
 12 13  1  0  0  0
 13 14  2  0  0  0
 14 15  1  0  0  0
 14  7  1  0  0  0
 15 16  2  0  0  0
 16 11  1  0  0  0
  7  8  2  0  0  0
  7  9  1  0  0  0
  9  1  1  0  0  0
  1  2  2  0  0  0
  2  3  1  0  0  0
  3 20  1  0  0  0
  3  4  2  0  0  0
 20 21  1  0  0  0
 21 22  1  0  0  0
 22 23  2  0  0  0
 23 24  1  0  0  0
 24 25  2  0  0  0
 24 26  1  0  0  0
 26 27  1  0  0  0
 27 28  2  0  0  0
 28 29  1  0  0  0
 28 30  1  0  0  0
 30 31  2  0  0  0
 31 32  1  0  0  0
 32 33  2  0  0  0
 32 26  1  0  0  0
 33 22  1  0  0  0
  4  5  1  0  0  0
  5  6  2  0  0  0
  6  1  1  0  0  0
  9 10  1  0  0  0
M  END
>  <minimizedAffinity>
-9.08548

>  <minimizedRMSD>
1.18365

$$$$
ChemDiv-G357-0279 MCULE-6498125051 MolPort-007-847-126 PubChem-20952969 ZINC000021016765 ZINC21016765


 36 39  0  0  0  0  0  0  0  0999 V2000
   17.9350  -10.6457   14.6328 C   0  0  0  0  0  0  0  0  0  0  0  0
   17.4973   -9.3181   14.5432 C   0  0  0  0  0  0  0  0  0  0  0  0
   16.9450   -8.6808   15.6575 C   0  0  0  0  0  0  0  0  0  0  0  0
   16.8234   -9.3633   16.8770 C   0  0  0  0  0  0  0  0  0  0  0  0
   17.2596  -10.6891   16.9652 C   0  0  0  0  0  0  0  0  0  0  0  0
   17.8118  -11.3279   15.8514 C   0  0  0  0  0  0  0  0  0  0  0  0
   16.2621   -8.7430   18.0415 N   0  0  0  0  0  0  0  0  0  0  0  0
   15.1320   -7.8620   18.0854 C   0  0  0  0  0  0  0  0  0  0  0  0
   14.5088   -7.5452   17.0379 O   0  0  0  0  0  0  0  0  0  0  0  0
   16.6984   -8.9431   18.9010 H   0  0  0  0  0  0  0  0  0  0  0  0
   14.6673   -7.3354   19.4002 C   0  0  0  0  0  0  0  0  0  0  0  0
   14.0572   -6.0588   19.2330 O   0  0  0  0  0  0  0  0  0  0  0  0
   12.7439   -5.7769   19.6264 C   0  0  0  0  0  0  0  0  0  0  0  0
   12.5313   -4.9931   20.7664 C   0  0  0  0  0  0  0  0  0  0  0  0
   11.2317   -4.6939   21.1860 C   0  0  0  0  0  0  0  0  0  0  0  0
   11.0157   -3.8601   22.3968 C   0  0  0  0  0  0  0  0  0  0  0  0
   10.1357   -5.1805   20.4677 C   0  0  0  0  0  0  0  0  0  0  0  0
   10.3386   -5.9661   19.3293 C   0  0  0  0  0  0  0  0  0  0  0  0
   11.6382   -6.2645   18.9098 C   0  0  0  0  0  0  0  0  0  0  0  0
   18.5126  -11.3139   13.4555 C   0  0  0  0  0  0  0  0  0  0  0  0
   18.9082  -12.5098   13.5372 O   0  0  0  0  0  0  0  0  0  0  0  0
   18.6183  -10.6186   12.2488 O   0  0  0  0  0  0  0  0  0  0  0  0
   17.6279   -9.6940   11.8245 C   0  0  0  0  0  0  0  0  0  0  0  0
   19.3080   -7.7009    6.3288 C   0  0  0  0  0  0  0  0  0  0  0  0
   18.2651   -8.5621    6.4374 N   0  0  0  0  0  0  0  0  0  0  0  0
   18.0231   -8.9105    7.6995 N   0  0  0  0  0  0  0  0  0  0  0  0
   18.8561   -8.3431    8.5965 C   0  0  0  0  0  0  0  0  0  0  0  0
   19.9795   -7.3421    7.8543 S   0  0  0  0  0  0  0  0  0  0  0  0
   18.7488   -8.5885    9.9255 N   0  0  0  0  0  0  0  0  0  0  0  0
   17.7781   -9.4377   10.3675 C   0  0  0  0  0  0  0  0  0  0  0  0
   16.8904  -10.0362    9.4579 C   0  0  0  0  0  0  0  0  0  0  0  0
   17.0345   -9.7559    8.0942 C   0  0  0  0  0  0  0  0  0  0  0  0
   16.2577  -10.2800    7.2526 O   0  0  0  0  0  0  0  0  0  0  0  0
   21.2879   -7.0932    4.9788 C   0  0  0  0  0  0  0  0  0  0  0  0
   19.7738   -7.1650    5.0065 C   0  0  0  0  0  0  0  0  0  0  0  0
   19.2883   -7.9975    3.8319 C   0  0  0  0  0  0  0  0  0  0  0  0
 34 35  1  0  0  0
 35 36  1  0  0  0
 35 24  1  0  0  0
 24 25  2  0  0  0
 25 26  1  0  0  0
 26 27  1  0  0  0
 27 28  1  0  0  0
 27 29  2  0  0  0
 28 24  1  0  0  0
 29 30  1  0  0  0
 30 23  1  0  0  0
 30 31  2  0  0  0
 23 22  1  0  0  0
 22 20  1  0  0  0
 20 21  2  0  0  0
 20  1  1  0  0  0
  1  2  2  0  0  0
  2  3  1  0  0  0
  3  4  2  0  0  0
  4  7  1  0  0  0
  4  5  1  0  0  0
  7  8  1  0  0  0
  8  9  2  0  0  0
  8 11  1  0  0  0
 11 12  1  0  0  0
 12 13  1  0  0  0
 13 14  2  0  0  0
 14 15  1  0  0  0
 15 16  1  0  0  0
 15 17  2  0  0  0
 17 18  1  0  0  0
 18 19  2  0  0  0
 19 13  1  0  0  0
  5  6  2  0  0  0
  6  1  1  0  0  0
 31 32  1  0  0  0
 32 33  2  0  0  0
 32 26  1  0  0  0
  7 10  1  0  0  0
M  END
>  <minimizedAffinity>
-9.08104

>  <minimizedRMSD>
2.57369

$$$$
ChemDiv-G756-1078 MCULE-6194346382 MolPort-007-879-581 PubChem-46356387 ZINC000021100288 ZINC21100288


 34 37  0  0  0  0  0  0  0  0999 V2000
   17.8213  -10.3588   15.7881 C   0  0  0  0  0  0  0  0  0  0  0  0
   18.0605   -9.8426   14.5059 C   0  0  0  0  0  0  0  0  0  0  0  0
   18.4120  -10.6933   13.4457 C   0  0  0  0  0  0  0  0  0  0  0  0
   18.5232  -12.0675   13.6771 C   0  0  0  0  0  0  0  0  0  0  0  0
   18.2865  -12.5887   14.9517 C   0  0  0  0  0  0  0  0  0  0  0  0
   17.9368  -11.7361   16.0025 C   0  0  0  0  0  0  0  0  0  0  0  0
   15.9954   -8.1595   18.3376 N   0  0  0  0  0  0  0  0  0  0  0  0
   16.1595   -8.9891   17.1805 C   0  0  0  0  0  0  0  0  0  0  0  0
   15.1792   -9.2500   16.4323 O   0  0  0  0  0  0  0  0  0  0  0  0
   17.4606   -9.5162   16.8912 N   0  0  0  0  0  0  0  0  0  0  0  0
   16.8010   -7.9950   18.8791 H   0  0  0  0  0  0  0  0  0  0  0  0
   18.1825   -9.2743   17.5153 H   0  0  0  0  0  0  0  0  0  0  0  0
   12.4298   -6.3389   19.7560 C   0  0  0  0  0  0  0  0  0  0  0  0
   13.4507   -6.7041   20.6388 C   0  0  0  0  0  0  0  0  0  0  0  0
   14.6192   -7.3027   20.1584 C   0  0  0  0  0  0  0  0  0  0  0  0
   14.7817   -7.5434   18.7902 C   0  0  0  0  0  0  0  0  0  0  0  0
   13.7580   -7.1773   17.9036 C   0  0  0  0  0  0  0  0  0  0  0  0
   12.5895   -6.5791   18.3821 C   0  0  0  0  0  0  0  0  0  0  0  0
   10.7837   -4.4932   19.7999 C   0  0  0  0  0  0  0  0  0  0  0  0
   11.2739   -5.7425   20.2672 O   0  0  0  0  0  0  0  0  0  0  0  0
   18.6546  -10.2007   12.1610 O   0  0  0  0  0  0  0  0  0  0  0  0
   18.1566   -8.9462   11.7143 C   0  0  0  0  0  0  0  0  0  0  0  0
   18.0667   -8.9448   10.2304 C   0  0  0  0  0  0  0  0  0  0  0  0
   17.0934   -9.7069    9.5914 C   0  0  0  0  0  0  0  0  0  0  0  0
   17.0481   -9.7082    8.1981 C   0  0  0  0  0  0  0  0  0  0  0  0
   16.1637  -10.3952    7.6169 O   0  0  0  0  0  0  0  0  0  0  0  0
   17.9541   -8.9739    7.4803 N   0  0  0  0  0  0  0  0  0  0  0  0
   17.9088   -8.9760    6.1145 C   0  0  0  0  0  0  0  0  0  0  0  0
   18.8265   -8.2354    5.3673 C   0  0  0  0  0  0  0  0  0  0  0  0
   19.7988   -7.4873    6.0282 C   0  0  0  0  0  0  0  0  0  0  0  0
   20.7843   -6.6933    5.2496 C   0  0  0  0  0  0  0  0  0  0  0  0
   19.8450   -7.4852    7.4210 C   0  0  0  0  0  0  0  0  0  0  0  0
   18.9121   -8.2359    8.1403 C   0  0  0  0  0  0  0  0  0  0  0  0
   18.9589   -8.2327    9.4976 N   0  0  0  0  0  0  0  0  0  0  0  0
 19 20  1  0  0  0
 20 13  1  0  0  0
 13 14  2  0  0  0
 14 15  1  0  0  0
 15 16  2  0  0  0
 16  7  1  0  0  0
 16 17  1  0  0  0
  7  8  1  0  0  0
  8  9  2  0  0  0
  8 10  1  0  0  0
 10  1  1  0  0  0
  1  2  2  0  0  0
  2  3  1  0  0  0
  3 21  1  0  0  0
  3  4  2  0  0  0
 21 22  1  0  0  0
 22 23  1  0  0  0
 23 24  2  0  0  0
 24 25  1  0  0  0
 25 26  2  0  0  0
 25 27  1  0  0  0
 27 28  1  0  0  0
 28 29  2  0  0  0
 29 30  1  0  0  0
 30 31  1  0  0  0
 30 32  2  0  0  0
 32 33  1  0  0  0
 33 34  2  0  0  0
 33 27  1  0  0  0
 34 23  1  0  0  0
  4  5  1  0  0  0
  5  6  2  0  0  0
  6  1  1  0  0  0
 17 18  2  0  0  0
 18 13  1  0  0  0
  7 11  1  0  0  0
 10 12  1  0  0  0
M  END
>  <minimizedAffinity>
-9.06543

>  <minimizedRMSD>
1.49145

$$$$
ChemDiv-G756-0181 MCULE-9382418313 MolPort-007-879-008 PubChem-46355903 ZINC000021099549 ZINC21099549


 33 36  0  0  0  0  0  0  0  0999 V2000
   17.4643  -10.1087   16.3580 C   0  0  0  0  0  0  0  0  0  0  0  0
   17.3898   -9.8158   14.9881 C   0  0  0  0  0  0  0  0  0  0  0  0
   17.7499  -10.7768   14.0299 C   0  0  0  0  0  0  0  0  0  0  0  0
   18.1860  -12.0362   14.4520 C   0  0  0  0  0  0  0  0  0  0  0  0
   18.2627  -12.3349   15.8148 C   0  0  0  0  0  0  0  0  0  0  0  0
   17.9028  -11.3734   16.7632 C   0  0  0  0  0  0  0  0  0  0  0  0
   15.6308   -7.6716   18.6753 N   0  0  0  0  0  0  0  0  0  0  0  0
   15.7930   -8.6314   17.6234 C   0  0  0  0  0  0  0  0  0  0  0  0
   14.8029   -9.0131   16.9430 O   0  0  0  0  0  0  0  0  0  0  0  0
   17.1036   -9.1487   17.3608 N   0  0  0  0  0  0  0  0  0  0  0  0
   16.4441   -7.4172   19.1683 H   0  0  0  0  0  0  0  0  0  0  0  0
   17.8330   -8.8094   17.9283 H   0  0  0  0  0  0  0  0  0  0  0  0
   12.0412   -5.8156   19.9665 C   0  0  0  0  0  0  0  0  0  0  0  0
   13.0553   -6.1215   20.8787 C   0  0  0  0  0  0  0  0  0  0  0  0
   14.2326   -6.7344   20.4392 C   0  0  0  0  0  0  0  0  0  0  0  0
   14.4089   -7.0425   19.0858 C   0  0  0  0  0  0  0  0  0  0  0  0
   13.3916   -6.7263   18.1721 C   0  0  0  0  0  0  0  0  0  0  0  0
   12.2141   -6.1136   18.6094 C   0  0  0  0  0  0  0  0  0  0  0  0
    9.5717   -5.7810   19.8135 C   0  0  0  0  0  0  0  0  0  0  0  0
   10.7976   -5.1455   20.4436 C   0  0  0  0  0  0  0  0  0  0  0  0
   17.6833  -10.5066   12.6608 O   0  0  0  0  0  0  0  0  0  0  0  0
   16.9365   -9.4198   12.1292 C   0  0  0  0  0  0  0  0  0  0  0  0
   17.2015   -9.2979   10.6715 C   0  0  0  0  0  0  0  0  0  0  0  0
   16.5161  -10.1064    9.7697 C   0  0  0  0  0  0  0  0  0  0  0  0
   16.8029   -9.9900    8.4104 C   0  0  0  0  0  0  0  0  0  0  0  0
   16.1796  -10.7190    7.5906 O   0  0  0  0  0  0  0  0  0  0  0  0
   17.7487   -9.0974    7.9814 N   0  0  0  0  0  0  0  0  0  0  0  0
   18.0291   -8.9842    6.6487 C   0  0  0  0  0  0  0  0  0  0  0  0
   18.9923   -8.0813    6.1947 C   0  0  0  0  0  0  0  0  0  0  0  0
   19.6734   -7.2888    7.1164 C   0  0  0  0  0  0  0  0  0  0  0  0
   19.3873   -7.4044    8.4755 C   0  0  0  0  0  0  0  0  0  0  0  0
   18.4175   -8.3165    8.8984 C   0  0  0  0  0  0  0  0  0  0  0  0
   18.1405   -8.4275   10.2233 N   0  0  0  0  0  0  0  0  0  0  0  0
 19 20  1  0  0  0
 20 13  1  0  0  0
 13 14  2  0  0  0
 14 15  1  0  0  0
 15 16  2  0  0  0
 16  7  1  0  0  0
 16 17  1  0  0  0
  7  8  1  0  0  0
  8  9  2  0  0  0
  8 10  1  0  0  0
 10  1  1  0  0  0
  1  2  2  0  0  0
  2  3  1  0  0  0
  3 21  1  0  0  0
  3  4  2  0  0  0
 21 22  1  0  0  0
 22 23  1  0  0  0
 23 24  2  0  0  0
 24 25  1  0  0  0
 25 26  2  0  0  0
 25 27  1  0  0  0
 27 28  1  0  0  0
 28 29  2  0  0  0
 29 30  1  0  0  0
 30 31  2  0  0  0
 31 32  1  0  0  0
 32 33  2  0  0  0
 32 27  1  0  0  0
 33 23  1  0  0  0
  4  5  1  0  0  0
  5  6  2  0  0  0
  6  1  1  0  0  0
 17 18  2  0  0  0
 18 13  1  0  0  0
  7 11  1  0  0  0
 10 12  1  0  0  0
M  END
>  <minimizedAffinity>
-9.05790

>  <minimizedRMSD>
1.22418

$$$$
ChemDiv-G756-1004 MCULE-4636937579 MolPort-010-744-700 PubChem-50802647 ZINC000033268621 ZINC33268621


 33 36  0  0  0  0  0  0  0  0999 V2000
   17.6483  -10.8548   14.2842 C   0  0  0  0  0  0  0  0  0  0  0  0
   18.3387  -11.9487   14.8291 C   0  0  0  0  0  0  0  0  0  0  0  0
   18.2875  -12.1987   16.2023 C   0  0  0  0  0  0  0  0  0  0  0  0
   17.5471  -11.3586   17.0377 C   0  0  0  0  0  0  0  0  0  0  0  0
   16.8542  -10.2654   16.5084 C   0  0  0  0  0  0  0  0  0  0  0  0
   16.9111  -10.0195   15.1285 C   0  0  0  0  0  0  0  0  0  0  0  0
   16.1126   -9.4218   17.3993 N   0  0  0  0  0  0  0  0  0  0  0  0
   15.5020   -8.1649   17.0810 C   0  0  0  0  0  0  0  0  0  0  0  0
   15.5454   -7.6931   15.9139 O   0  0  0  0  0  0  0  0  0  0  0  0
   16.0123   -9.7389   18.3259 H   0  0  0  0  0  0  0  0  0  0  0  0
   14.8284   -7.3872   18.1584 C   0  0  0  0  0  0  0  0  0  0  0  0
   15.2508   -7.8505   19.4371 O   0  0  0  0  0  0  0  0  0  0  0  0
   14.8132   -7.2869   20.6419 C   0  0  0  0  0  0  0  0  0  0  0  0
   15.7547   -6.7332   21.5207 C   0  0  0  0  0  0  0  0  0  0  0  0
   17.0732   -6.7488   21.2064 F   0  0  0  0  0  0  0  0  0  0  0  0
   15.3403   -6.1643   22.7289 C   0  0  0  0  0  0  0  0  0  0  0  0
   13.9843   -6.1412   23.0644 C   0  0  0  0  0  0  0  0  0  0  0  0
   13.0392   -6.6871   22.1926 C   0  0  0  0  0  0  0  0  0  0  0  0
   13.4513   -7.2576   20.9855 C   0  0  0  0  0  0  0  0  0  0  0  0
   17.6772  -10.5760   12.9157 O   0  0  0  0  0  0  0  0  0  0  0  0
   18.3880   -9.4727   12.3696 C   0  0  0  0  0  0  0  0  0  0  0  0
   20.3195   -7.0098    5.7369 C   0  0  0  0  0  0  0  0  0  0  0  0
   19.3640   -7.7464    6.6051 C   0  0  0  0  0  0  0  0  0  0  0  0
   19.6218   -7.8842    7.9677 C   0  0  0  0  0  0  0  0  0  0  0  0
   18.7128   -8.5759    8.7724 C   0  0  0  0  0  0  0  0  0  0  0  0
   18.9654   -8.7075   10.1004 N   0  0  0  0  0  0  0  0  0  0  0  0
   18.1069   -9.3731   10.9134 C   0  0  0  0  0  0  0  0  0  0  0  0
   16.9375   -9.9189   10.3925 C   0  0  0  0  0  0  0  0  0  0  0  0
   16.6816   -9.7822    9.0291 C   0  0  0  0  0  0  0  0  0  0  0  0
   15.6221  -10.2756    8.5548 O   0  0  0  0  0  0  0  0  0  0  0  0
   17.5690   -9.1155    8.2264 N   0  0  0  0  0  0  0  0  0  0  0  0
   17.3163   -8.9817    6.8900 C   0  0  0  0  0  0  0  0  0  0  0  0
   18.2059   -8.2975    6.0592 C   0  0  0  0  0  0  0  0  0  0  0  0
 22 23  1  0  0  0
 23 24  2  0  0  0
 24 25  1  0  0  0
 25 26  2  0  0  0
 26 27  1  0  0  0
 27 21  1  0  0  0
 27 28  2  0  0  0
 21 20  1  0  0  0
 20  1  1  0  0  0
  1  2  2  0  0  0
  2  3  1  0  0  0
  3  4  2  0  0  0
  4  5  1  0  0  0
  5  7  1  0  0  0
  5  6  2  0  0  0
  7  8  1  0  0  0
  8  9  2  0  0  0
  8 11  1  0  0  0
 11 12  1  0  0  0
 12 13  1  0  0  0
 13 14  2  0  0  0
 14 15  1  0  0  0
 14 16  1  0  0  0
 16 17  2  0  0  0
 17 18  1  0  0  0
 18 19  2  0  0  0
 19 13  1  0  0  0
  6  1  1  0  0  0
 28 29  1  0  0  0
 29 30  2  0  0  0
 29 31  1  0  0  0
 31 32  1  0  0  0
 31 25  1  0  0  0
 32 33  2  0  0  0
 33 23  1  0  0  0
  7 10  1  0  0  0
M  END
>  <minimizedAffinity>
-9.05467

>  <minimizedRMSD>
2.14454

$$$$
ChemDiv-G357-2001 MCULE-1408076319 MolPort-007-847-729 PubChem-46343514 ZINC000021633229


 32 35  0  0  0  0  0  0  0  0999 V2000
   17.4676  -10.2158   14.6481 C   0  0  0  0  0  0  0  0  0  0  0  0
   17.5784  -10.8400   15.8986 C   0  0  0  0  0  0  0  0  0  0  0  0
   17.0752  -10.2181   17.0447 C   0  0  0  0  0  0  0  0  0  0  0  0
   16.4560   -8.9668   16.9578 C   0  0  0  0  0  0  0  0  0  0  0  0
   16.3434   -8.3430   15.7063 C   0  0  0  0  0  0  0  0  0  0  0  0
   16.8458   -8.9635   14.5595 C   0  0  0  0  0  0  0  0  0  0  0  0
   15.9523   -8.3622   18.1569 N   0  0  0  0  0  0  0  0  0  0  0  0
   14.7369   -7.6101   18.3021 C   0  0  0  0  0  0  0  0  0  0  0  0
   13.9882   -7.4244   17.3064 O   0  0  0  0  0  0  0  0  0  0  0  0
   16.4986   -8.4747   18.9682 H   0  0  0  0  0  0  0  0  0  0  0  0
   14.3759   -7.0651   19.6356 C   0  0  0  0  0  0  0  0  0  0  0  0
   15.1824   -7.4225   20.7287 C   0  0  0  0  0  0  0  0  0  0  0  0
   14.9069   -6.9528   22.0137 C   0  0  0  0  0  0  0  0  0  0  0  0
   13.8162   -6.1130   22.2280 C   0  0  0  0  0  0  0  0  0  0  0  0
   13.0032   -5.7429   21.1570 C   0  0  0  0  0  0  0  0  0  0  0  0
   13.2679   -6.2077   19.8640 C   0  0  0  0  0  0  0  0  0  0  0  0
   12.1794   -5.6628   18.5941 Cl  0  0  0  0  0  0  0  0  0  0  0  0
   17.9972  -10.8641   13.4375 C   0  0  0  0  0  0  0  0  0  0  0  0
   18.3064  -12.0876   13.4588 O   0  0  0  0  0  0  0  0  0  0  0  0
   18.1573  -10.1181   12.2679 O   0  0  0  0  0  0  0  0  0  0  0  0
   17.0524   -9.5508   11.5796 C   0  0  0  0  0  0  0  0  0  0  0  0
   18.0489   -8.8506    7.5398 N   0  0  0  0  0  0  0  0  0  0  0  0
   18.4971   -8.4937    6.3064 C   0  0  0  0  0  0  0  0  0  0  0  0
   19.5501   -7.5835    6.3582 C   0  0  0  0  0  0  0  0  0  0  0  0
   19.9273   -7.2208    7.9674 S   0  0  0  0  0  0  0  0  0  0  0  0
   18.7271   -8.2438    8.5396 C   0  0  0  0  0  0  0  0  0  0  0  0
   18.4249   -8.4649    9.8424 N   0  0  0  0  0  0  0  0  0  0  0  0
   17.4175   -9.3270   10.1561 C   0  0  0  0  0  0  0  0  0  0  0  0
   16.6900   -9.9665    9.1400 C   0  0  0  0  0  0  0  0  0  0  0  0
   17.0300   -9.7126    7.8066 C   0  0  0  0  0  0  0  0  0  0  0  0
   16.3953  -10.2756    6.8748 O   0  0  0  0  0  0  0  0  0  0  0  0
   20.2417   -7.0120    5.1739 C   0  0  0  0  0  0  0  0  0  0  0  0
 22 23  1  0  0  0
 23 24  2  0  0  0
 24 25  1  0  0  0
 25 26  1  0  0  0
 26 27  2  0  0  0
 27 28  1  0  0  0
 28 21  1  0  0  0
 21 20  1  0  0  0
 20 18  1  0  0  0
 18 19  2  0  0  0
 18  1  1  0  0  0
  1  2  2  0  0  0
  2  3  1  0  0  0
  3  4  2  0  0  0
  4  5  1  0  0  0
  5  6  2  0  0  0
  4  7  1  0  0  0
  7  8  1  0  0  0
  8  9  2  0  0  0
  8 11  1  0  0  0
 11 12  2  0  0  0
 12 13  1  0  0  0
 13 14  2  0  0  0
 14 15  1  0  0  0
 15 16  2  0  0  0
 16 17  1  0  0  0
 28 29  2  0  0  0
 29 30  1  0  0  0
 30 31  2  0  0  0
 24 32  1  0  0  0
 26 22  1  0  0  0
  6  1  1  0  0  0
 16 11  1  0  0  0
 30 22  1  0  0  0
  7 10  1  0  0  0
M  END
>  <minimizedAffinity>
-9.05122

>  <minimizedRMSD>
1.01617

$$$$
ChemDiv-G795-0371 MCULE-8801264047 MolPort-010-745-020 PubChem-53030370 ZINC000035447636


 30 32  0  0  0  0  0  0  0  0999 V2000
   17.3112   -9.9662   13.8847 C   0  0  0  0  0  0  0  0  0  0  0  0
   17.9464  -11.0748   14.4875 C   0  0  0  0  0  0  0  0  0  0  0  0
   18.8139  -12.0085   13.7145 C   0  0  0  0  0  0  0  0  0  0  0  0
   17.8282  -11.2754   15.8657 C   0  0  0  0  0  0  0  0  0  0  0  0
   17.0979  -10.3810   16.6505 C   0  0  0  0  0  0  0  0  0  0  0  0
   16.4877   -9.2638   16.0678 C   0  0  0  0  0  0  0  0  0  0  0  0
   16.6072   -9.0615   14.6863 C   0  0  0  0  0  0  0  0  0  0  0  0
   16.3550   -9.8875   11.5298 C   0  0  0  0  0  0  0  0  0  0  0  0
   15.1750  -10.0843   11.9284 O   0  0  0  0  0  0  0  0  0  0  0  0
   17.4084   -9.6935   12.4811 N   0  0  0  0  0  0  0  0  0  0  0  0
   18.2658   -9.3459   12.1444 H   0  0  0  0  0  0  0  0  0  0  0  0
   16.6238   -9.8146   10.0799 C   0  0  0  0  0  0  0  0  0  0  0  0
   17.6491   -9.0339    9.4835 C   0  0  0  0  0  0  0  0  0  0  0  0
   18.5773   -8.2067   10.1260 C   0  0  0  0  0  0  0  0  0  0  0  0
   19.5216   -7.5125    9.3503 C   0  0  0  0  0  0  0  0  0  0  0  0
   19.5346   -7.6473    7.9482 C   0  0  0  0  0  0  0  0  0  0  0  0
   18.6043   -8.4773    7.3048 C   0  0  0  0  0  0  0  0  0  0  0  0
   17.6842   -9.1489    8.1028 C   0  0  0  0  0  0  0  0  0  0  0  0
   16.4671  -10.1948    7.6815 S   0  0  0  0  0  0  0  0  0  0  0  0
   15.8662  -10.5309    9.2001 N   0  0  0  0  0  0  0  0  0  0  0  0
   15.7303   -8.3112   16.8982 C   0  0  0  0  0  0  0  0  0  0  0  0
   15.8989   -8.3081   18.3180 N   0  0  0  0  0  0  0  0  0  0  0  0
   14.9325   -7.4971   16.3571 O   0  0  0  0  0  0  0  0  0  0  0  0
   16.5229   -8.9514   18.7254 H   0  0  0  0  0  0  0  0  0  0  0  0
   15.1775   -7.3842   19.1793 C   0  0  0  0  0  0  0  0  0  0  0  0
   14.9976   -7.9927   20.5578 C   0  0  0  0  0  0  0  0  0  0  0  0
   15.3684   -6.9851   21.6293 C   0  0  0  0  0  0  0  0  0  0  0  0
   15.1580   -7.5461   22.8881 O   0  0  0  0  0  0  0  0  0  0  0  0
   16.1771   -7.0203   23.6808 C   0  0  0  0  0  0  0  0  0  0  0  0
   15.8609   -7.2688   25.1408 C   0  0  0  0  0  0  0  0  0  0  0  0
 12 13  1  0  0  0
 13 14  2  0  0  0
 14 15  1  0  0  0
 15 16  2  0  0  0
 16 17  1  0  0  0
 17 18  2  0  0  0
 18 19  1  0  0  0
 19 20  1  0  0  0
 12  8  1  0  0  0
  8  9  2  0  0  0
  8 10  1  0  0  0
 10  1  1  0  0  0
  1  2  2  0  0  0
  2  3  1  0  0  0
  2  4  1  0  0  0
  4  5  2  0  0  0
  5  6  1  0  0  0
  6  7  2  0  0  0
  6 21  1  0  0  0
 21 22  1  0  0  0
 22 25  1  0  0  0
 25 26  1  0  0  0
 26 27  1  0  0  0
 27 28  1  0  0  0
 28 29  1  0  0  0
 29 30  1  0  0  0
 21 23  2  0  0  0
 20 12  2  0  0  0
  7  1  1  0  0  0
 18 13  1  0  0  0
 10 11  1  0  0  0
 22 24  1  0  0  0
M  END
>  <minimizedAffinity>
-9.05005

>  <minimizedRMSD>
1.33785

$$$$
ChemDiv-C679-4183 MCULE-9507374546 MolPort-007-655-795 PubChem-46258325 ZINC000013367967 ZINC13367967


 32 35  0  0  0  0  0  0  0  0999 V2000
   17.8726  -10.3600   14.2383 C   0  0  0  0  0  0  0  0  0  0  0  0
   18.4336  -11.5923   14.6085 C   0  0  0  0  0  0  0  0  0  0  0  0
   18.2714  -12.0758   15.9089 C   0  0  0  0  0  0  0  0  0  0  0  0
   17.5500  -11.3319   16.8457 C   0  0  0  0  0  0  0  0  0  0  0  0
   16.9875  -10.1017   16.4914 C   0  0  0  0  0  0  0  0  0  0  0  0
   17.1523   -9.6228   15.1832 C   0  0  0  0  0  0  0  0  0  0  0  0
   16.2460   -9.3723   17.4792 N   0  0  0  0  0  0  0  0  0  0  0  0
   15.4470   -8.2000   17.2622 C   0  0  0  0  0  0  0  0  0  0  0  0
   15.3870   -7.6673   16.1209 O   0  0  0  0  0  0  0  0  0  0  0  0
   16.2897   -9.7113   18.4024 H   0  0  0  0  0  0  0  0  0  0  0  0
   14.6937   -7.6118   18.3842 C   0  0  0  0  0  0  0  0  0  0  0  0
   13.4296   -7.0400   18.1697 C   0  0  0  0  0  0  0  0  0  0  0  0
   12.7127   -6.4879   19.2353 C   0  0  0  0  0  0  0  0  0  0  0  0
   13.2541   -6.5036   20.5237 C   0  0  0  0  0  0  0  0  0  0  0  0
   12.4905   -5.9199   21.6571 C   0  0  0  0  0  0  0  0  0  0  0  0
   14.5123   -7.0710   20.7465 C   0  0  0  0  0  0  0  0  0  0  0  0
   15.2297   -7.6229   19.6807 C   0  0  0  0  0  0  0  0  0  0  0  0
   18.0129   -9.8484   12.9461 O   0  0  0  0  0  0  0  0  0  0  0  0
   16.9382   -9.2431   12.2390 C   0  0  0  0  0  0  0  0  0  0  0  0
   19.0577   -8.3333    6.6150 C   0  0  0  0  0  0  0  0  0  0  0  0
   18.0553   -9.2281    6.8126 N   0  0  0  0  0  0  0  0  0  0  0  0
   17.7048   -9.3183    8.0934 N   0  0  0  0  0  0  0  0  0  0  0  0
   18.4112   -8.5133    8.9145 C   0  0  0  0  0  0  0  0  0  0  0  0
   19.5513   -7.6125    8.0733 S   0  0  0  0  0  0  0  0  0  0  0  0
   18.1839   -8.4796   10.2505 N   0  0  0  0  0  0  0  0  0  0  0  0
   17.2172   -9.2828   10.7797 C   0  0  0  0  0  0  0  0  0  0  0  0
   16.4618  -10.1267    9.9488 C   0  0  0  0  0  0  0  0  0  0  0  0
   16.7297  -10.1333    8.5754 C   0  0  0  0  0  0  0  0  0  0  0  0
   16.0733  -10.8821    7.8041 O   0  0  0  0  0  0  0  0  0  0  0  0
   20.1894   -6.6045    5.2572 C   0  0  0  0  0  0  0  0  0  0  0  0
   19.6679   -8.0278    5.2801 C   0  0  0  0  0  0  0  0  0  0  0  0
   18.6784   -8.2164    4.1449 C   0  0  0  0  0  0  0  0  0  0  0  0
 30 31  1  0  0  0
 31 32  1  0  0  0
 31 20  1  0  0  0
 20 21  2  0  0  0
 21 22  1  0  0  0
 22 23  1  0  0  0
 23 24  1  0  0  0
 23 25  2  0  0  0
 24 20  1  0  0  0
 25 26  1  0  0  0
 26 19  1  0  0  0
 26 27  2  0  0  0
 19 18  1  0  0  0
 18  1  1  0  0  0
  1  2  2  0  0  0
  2  3  1  0  0  0
  3  4  2  0  0  0
  4  5  1  0  0  0
  5  7  1  0  0  0
  5  6  2  0  0  0
  7  8  1  0  0  0
  8  9  2  0  0  0
  8 11  1  0  0  0
 11 12  2  0  0  0
 12 13  1  0  0  0
 13 14  2  0  0  0
 14 15  1  0  0  0
 14 16  1  0  0  0
 16 17  2  0  0  0
 17 11  1  0  0  0
  6  1  1  0  0  0
 27 28  1  0  0  0
 28 29  2  0  0  0
 28 22  1  0  0  0
  7 10  1  0  0  0
M  END
>  <minimizedAffinity>
-9.04203

>  <minimizedRMSD>
1.18815

$$$$
ChemDiv-G756-0216 MCULE-2109284024 MolPort-007-879-034 PubChem-46355926 ZINC000021099615 ZINC21099615


 34 37  0  0  0  0  0  0  0  0999 V2000
   17.7154  -10.3377   15.9330 C   0  0  0  0  0  0  0  0  0  0  0  0
   17.8050   -9.8406   14.6242 C   0  0  0  0  0  0  0  0  0  0  0  0
   18.1578  -10.6861   13.5602 C   0  0  0  0  0  0  0  0  0  0  0  0
   18.4210  -12.0353   13.8144 C   0  0  0  0  0  0  0  0  0  0  0  0
   18.3318  -12.5375   15.1151 C   0  0  0  0  0  0  0  0  0  0  0  0
   17.9796  -11.6906   16.1694 C   0  0  0  0  0  0  0  0  0  0  0  0
   15.9097   -8.1333   18.4922 N   0  0  0  0  0  0  0  0  0  0  0  0
   16.0643   -8.9644   17.3350 C   0  0  0  0  0  0  0  0  0  0  0  0
   15.0800   -9.2179   16.5892 O   0  0  0  0  0  0  0  0  0  0  0  0
   17.3611   -9.4995   17.0415 N   0  0  0  0  0  0  0  0  0  0  0  0
   16.7123   -7.9956   19.0455 H   0  0  0  0  0  0  0  0  0  0  0  0
   18.0851   -9.2671   17.6669 H   0  0  0  0  0  0  0  0  0  0  0  0
   12.3867   -6.1934   19.8583 C   0  0  0  0  0  0  0  0  0  0  0  0
   13.3840   -6.5976   20.7603 C   0  0  0  0  0  0  0  0  0  0  0  0
   14.5374   -7.2360   20.2960 C   0  0  0  0  0  0  0  0  0  0  0  0
   14.7096   -7.4807   18.9299 C   0  0  0  0  0  0  0  0  0  0  0  0
   13.7119   -7.0763   18.0300 C   0  0  0  0  0  0  0  0  0  0  0  0
   12.5580   -6.4372   18.4926 C   0  0  0  0  0  0  0  0  0  0  0  0
   11.2222   -5.5522   20.2905 O   0  0  0  0  0  0  0  0  0  0  0  0
   11.5207   -3.6286   21.6896 C   0  0  0  0  0  0  0  0  0  0  0  0
   11.0581   -5.0686   21.6168 C   0  0  0  0  0  0  0  0  0  0  0  0
   18.2535  -10.2130   12.2492 O   0  0  0  0  0  0  0  0  0  0  0  0
   17.4010   -9.1980   11.7353 C   0  0  0  0  0  0  0  0  0  0  0  0
   17.5668   -9.1068   10.2605 C   0  0  0  0  0  0  0  0  0  0  0  0
   16.7923   -9.9028    9.4214 C   0  0  0  0  0  0  0  0  0  0  0  0
   16.9901   -9.8191    8.0441 C   0  0  0  0  0  0  0  0  0  0  0  0
   16.2879  -10.5387    7.2817 O   0  0  0  0  0  0  0  0  0  0  0  0
   17.9364   -8.9696    7.5362 N   0  0  0  0  0  0  0  0  0  0  0  0
   18.1316   -8.8904    6.1858 C   0  0  0  0  0  0  0  0  0  0  0  0
   19.0939   -8.0315    5.6516 C   0  0  0  0  0  0  0  0  0  0  0  0
   19.8627   -7.2485    6.5105 C   0  0  0  0  0  0  0  0  0  0  0  0
   19.6641   -7.3302    7.8876 C   0  0  0  0  0  0  0  0  0  0  0  0
   18.6927   -8.1982    8.3915 C   0  0  0  0  0  0  0  0  0  0  0  0
   18.5031   -8.2782    9.7338 N   0  0  0  0  0  0  0  0  0  0  0  0
 20 21  1  0  0  0
 21 19  1  0  0  0
 19 13  1  0  0  0
 13 14  2  0  0  0
 14 15  1  0  0  0
 15 16  2  0  0  0
 16  7  1  0  0  0
 16 17  1  0  0  0
  7  8  1  0  0  0
  8  9  2  0  0  0
  8 10  1  0  0  0
 10  1  1  0  0  0
  1  2  2  0  0  0
  2  3  1  0  0  0
  3 22  1  0  0  0
  3  4  2  0  0  0
 22 23  1  0  0  0
 23 24  1  0  0  0
 24 25  2  0  0  0
 25 26  1  0  0  0
 26 27  2  0  0  0
 26 28  1  0  0  0
 28 29  1  0  0  0
 29 30  2  0  0  0
 30 31  1  0  0  0
 31 32  2  0  0  0
 32 33  1  0  0  0
 33 34  2  0  0  0
 33 28  1  0  0  0
 34 24  1  0  0  0
  4  5  1  0  0  0
  5  6  2  0  0  0
  6  1  1  0  0  0
 17 18  2  0  0  0
 18 13  1  0  0  0
  7 11  1  0  0  0
 10 12  1  0  0  0
M  END
>  <minimizedAffinity>
-9.03409

>  <minimizedRMSD>
1.59002

$$$$
ChemDiv-C679-5357 MCULE-8673721513 MolPort-007-656-077 PubChem-46258456 ZINC000021369042 ZINC21369042


 30 33  0  0  0  0  0  0  0  0999 V2000
   16.7915   -9.4390   14.0324 C   0  0  0  0  0  0  0  0  0  0  0  0
   18.0746  -10.0083   14.0523 C   0  0  0  0  0  0  0  0  0  0  0  0
   18.7618  -10.1501   15.2600 C   0  0  0  0  0  0  0  0  0  0  0  0
   18.1726   -9.7239   16.4532 C   0  0  0  0  0  0  0  0  0  0  0  0
   16.8948   -9.1551   16.4484 C   0  0  0  0  0  0  0  0  0  0  0  0
   16.2099   -9.0159   15.2316 C   0  0  0  0  0  0  0  0  0  0  0  0
   16.3234   -8.7327   17.6941 N   0  0  0  0  0  0  0  0  0  0  0  0
   15.1685   -7.8985   17.8736 C   0  0  0  0  0  0  0  0  0  0  0  0
   14.5460   -7.4408   16.8766 O   0  0  0  0  0  0  0  0  0  0  0  0
   16.7703   -9.0480   18.5128 H   0  0  0  0  0  0  0  0  0  0  0  0
   14.7063   -7.5748   19.2349 C   0  0  0  0  0  0  0  0  0  0  0  0
   15.6319   -7.2714   20.2442 C   0  0  0  0  0  0  0  0  0  0  0  0
   15.1947   -6.9664   21.5366 C   0  0  0  0  0  0  0  0  0  0  0  0
   13.8284   -6.9625   21.8291 C   0  0  0  0  0  0  0  0  0  0  0  0
   13.4048   -6.6638   23.0807 F   0  0  0  0  0  0  0  0  0  0  0  0
   12.8990   -7.2630   20.8296 C   0  0  0  0  0  0  0  0  0  0  0  0
   13.3363   -7.5673   19.5373 C   0  0  0  0  0  0  0  0  0  0  0  0
   16.0768   -9.2832   12.8422 O   0  0  0  0  0  0  0  0  0  0  0  0
   16.0058  -10.2995   11.8510 C   0  0  0  0  0  0  0  0  0  0  0  0
   18.4520   -8.5710    5.8982 C   0  0  0  0  0  0  0  0  0  0  0  0
   18.7000   -8.3763    7.3564 C   0  0  0  0  0  0  0  0  0  0  0  0
   19.7599   -7.5822    7.8047 C   0  0  0  0  0  0  0  0  0  0  0  0
   19.7215   -7.5946    9.4967 S   0  0  0  0  0  0  0  0  0  0  0  0
   18.3822   -8.5922    9.5728 C   0  0  0  0  0  0  0  0  0  0  0  0
   17.7796   -9.0254   10.7068 N   0  0  0  0  0  0  0  0  0  0  0  0
   16.6931   -9.8399   10.6156 C   0  0  0  0  0  0  0  0  0  0  0  0
   16.1936  -10.2118    9.3603 C   0  0  0  0  0  0  0  0  0  0  0  0
   16.8393   -9.7448    8.2108 C   0  0  0  0  0  0  0  0  0  0  0  0
   16.3993  -10.0737    7.0773 O   0  0  0  0  0  0  0  0  0  0  0  0
   17.9348   -8.9363    8.3447 N   0  0  0  0  0  0  0  0  0  0  0  0
 20 21  1  0  0  0
 21 22  2  0  0  0
 22 23  1  0  0  0
 23 24  1  0  0  0
 24 25  2  0  0  0
 25 26  1  0  0  0
 26 19  1  0  0  0
 26 27  2  0  0  0
 19 18  1  0  0  0
 18  1  1  0  0  0
  1  2  2  0  0  0
  2  3  1  0  0  0
  3  4  2  0  0  0
  4  5  1  0  0  0
  5  7  1  0  0  0
  5  6  2  0  0  0
  7  8  1  0  0  0
  8  9  2  0  0  0
  8 11  1  0  0  0
 11 12  2  0  0  0
 12 13  1  0  0  0
 13 14  2  0  0  0
 14 15  1  0  0  0
 14 16  1  0  0  0
 16 17  2  0  0  0
 17 11  1  0  0  0
  6  1  1  0  0  0
 27 28  1  0  0  0
 28 29  2  0  0  0
 28 30  1  0  0  0
 30 21  1  0  0  0
 30 24  1  0  0  0
  7 10  1  0  0  0
M  END
>  <minimizedAffinity>
-9.02875

>  <minimizedRMSD>
1.52327

$$$$
ChemDiv-G756-2761 MCULE-9339419240 MolPort-007-880-080 PubChem-46356791 ZINC000033068307 ZINC33068307


 33 36  0  0  0  0  0  0  0  0999 V2000
   16.8500   -9.8733   16.9332 C   0  0  0  0  0  0  0  0  0  0  0  0
   16.8112   -9.6244   15.5526 C   0  0  0  0  0  0  0  0  0  0  0  0
   17.4023  -10.5138   14.6499 C   0  0  0  0  0  0  0  0  0  0  0  0
   18.0404  -11.6658   15.1362 C   0  0  0  0  0  0  0  0  0  0  0  0
   18.0822  -11.9200   16.5092 C   0  0  0  0  0  0  0  0  0  0  0  0
   17.4879  -11.0258   17.4033 C   0  0  0  0  0  0  0  0  0  0  0  0
   15.2817   -7.9620   17.6109 C   0  0  0  0  0  0  0  0  0  0  0  0
   14.8264   -7.7872   16.4500 O   0  0  0  0  0  0  0  0  0  0  0  0
   16.2563   -8.9783   17.8828 N   0  0  0  0  0  0  0  0  0  0  0  0
   16.5478   -9.0710   18.8186 H   0  0  0  0  0  0  0  0  0  0  0  0
   14.7822   -7.1061   18.7252 C   0  0  0  0  0  0  0  0  0  0  0  0
   15.0676   -7.7123   19.9816 O   0  0  0  0  0  0  0  0  0  0  0  0
   18.1571   -5.8364   23.2695 C   0  0  0  0  0  0  0  0  0  0  0  0
   16.7617   -6.0902   22.8258 C   0  0  0  0  0  0  0  0  0  0  0  0
   16.5223   -6.7810   21.6361 C   0  0  0  0  0  0  0  0  0  0  0  0
   15.2156   -7.0215   21.1952 C   0  0  0  0  0  0  0  0  0  0  0  0
   14.1296   -6.5726   21.9902 C   0  0  0  0  0  0  0  0  0  0  0  0
   12.7064   -6.8546   21.6504 C   0  0  0  0  0  0  0  0  0  0  0  0
   14.3813   -5.8807   23.1799 C   0  0  0  0  0  0  0  0  0  0  0  0
   15.6910   -5.6349   23.5949 C   0  0  0  0  0  0  0  0  0  0  0  0
   17.3387  -10.2326   13.2828 O   0  0  0  0  0  0  0  0  0  0  0  0
   18.4989  -10.0258   12.4878 C   0  0  0  0  0  0  0  0  0  0  0  0
   18.0979   -9.6345   11.1106 C   0  0  0  0  0  0  0  0  0  0  0  0
   16.8834  -10.0719   10.5910 C   0  0  0  0  0  0  0  0  0  0  0  0
   16.5208   -9.6759    9.3046 C   0  0  0  0  0  0  0  0  0  0  0  0
   15.4211  -10.0737    8.8309 O   0  0  0  0  0  0  0  0  0  0  0  0
   17.3503   -8.8665    8.5753 N   0  0  0  0  0  0  0  0  0  0  0  0
   16.9946   -8.4799    7.3134 C   0  0  0  0  0  0  0  0  0  0  0  0
   17.8272   -7.6531    6.5570 C   0  0  0  0  0  0  0  0  0  0  0  0
   19.0344   -7.2188    7.1009 C   0  0  0  0  0  0  0  0  0  0  0  0
   19.3972   -7.6132    8.3875 C   0  0  0  0  0  0  0  0  0  0  0  0
   18.5428   -8.4419    9.1190 C   0  0  0  0  0  0  0  0  0  0  0  0
   18.8992   -8.8262   10.3722 N   0  0  0  0  0  0  0  0  0  0  0  0
 13 14  1  0  0  0
 14 15  2  0  0  0
 15 16  1  0  0  0
 16 12  1  0  0  0
 16 17  2  0  0  0
 12 11  1  0  0  0
 11  7  1  0  0  0
  7  8  2  0  0  0
  7  9  1  0  0  0
  9  1  1  0  0  0
  1  2  2  0  0  0
  2  3  1  0  0  0
  3 21  1  0  0  0
  3  4  2  0  0  0
 21 22  1  0  0  0
 22 23  1  0  0  0
 23 24  2  0  0  0
 24 25  1  0  0  0
 25 26  2  0  0  0
 25 27  1  0  0  0
 27 28  1  0  0  0
 28 29  2  0  0  0
 29 30  1  0  0  0
 30 31  2  0  0  0
 31 32  1  0  0  0
 32 33  2  0  0  0
 32 27  1  0  0  0
 33 23  1  0  0  0
  4  5  1  0  0  0
  5  6  2  0  0  0
  6  1  1  0  0  0
 17 18  1  0  0  0
 17 19  1  0  0  0
 19 20  2  0  0  0
 20 14  1  0  0  0
  9 10  1  0  0  0
M  END
>  <minimizedAffinity>
-9.02776

>  <minimizedRMSD>
2.31336

$$$$
ChemDiv-D439-4146 MCULE-7377907624 MolPort-007-706-778 PubChem-46268360 ZINC000021797127 ZINC21797127


 36 39  0  0  0  0  0  0  0  0999 V2000
   16.9264   -9.7788   14.3432 C   0  0  0  0  0  0  0  0  0  0  0  0
   16.3718   -9.0851   15.4247 C   0  0  0  0  0  0  0  0  0  0  0  0
   16.6892   -9.4200   16.7475 C   0  0  0  0  0  0  0  0  0  0  0  0
   17.5791  -10.4650   16.9908 C   0  0  0  0  0  0  0  0  0  0  0  0
   18.1483  -11.1674   15.9279 C   0  0  0  0  0  0  0  0  0  0  0  0
   17.8355  -10.8376   14.6053 C   0  0  0  0  0  0  0  0  0  0  0  0
   18.5095  -11.6248   13.5344 C   0  0  0  0  0  0  0  0  0  0  0  0
   16.1296   -8.7152   17.8640 N   0  0  0  0  0  0  0  0  0  0  0  0
   15.0289   -7.7973   17.8340 C   0  0  0  0  0  0  0  0  0  0  0  0
   14.4156   -7.5477   16.7626 O   0  0  0  0  0  0  0  0  0  0  0  0
   16.5442   -8.8786   18.7418 H   0  0  0  0  0  0  0  0  0  0  0  0
   14.5785   -7.1504   19.0986 C   0  0  0  0  0  0  0  0  0  0  0  0
   15.2620   -7.7166   20.2111 O   0  0  0  0  0  0  0  0  0  0  0  0
   15.5296   -7.0064   21.3863 C   0  0  0  0  0  0  0  0  0  0  0  0
   16.8381   -6.6447   21.7461 C   0  0  0  0  0  0  0  0  0  0  0  0
   17.0741   -5.9312   22.9240 C   0  0  0  0  0  0  0  0  0  0  0  0
   18.4613   -5.5579   23.3006 C   0  0  0  0  0  0  0  0  0  0  0  0
   16.0046   -5.5730   23.7495 C   0  0  0  0  0  0  0  0  0  0  0  0
   14.6997   -5.9282   23.3958 C   0  0  0  0  0  0  0  0  0  0  0  0
   13.5600   -5.5418   24.2675 C   0  0  0  0  0  0  0  0  0  0  0  0
   14.4643   -6.6412   22.2165 C   0  0  0  0  0  0  0  0  0  0  0  0
   16.5376   -9.3576   13.0614 O   0  0  0  0  0  0  0  0  0  0  0  0
   16.2600  -10.2106   11.9597 C   0  0  0  0  0  0  0  0  0  0  0  0
   18.9555   -8.0384    7.6859 N   0  0  0  0  0  0  0  0  0  0  0  0
   20.0110   -7.5769    8.3955 C   0  0  0  0  0  0  0  0  0  0  0  0
   19.8904   -7.8766    9.7161 N   0  0  0  0  0  0  0  0  0  0  0  0
   18.7165   -8.5353    9.7488 C   0  0  0  0  0  0  0  0  0  0  0  0
   18.1333   -9.0416   10.8621 N   0  0  0  0  0  0  0  0  0  0  0  0
   16.9365   -9.6862   10.7448 C   0  0  0  0  0  0  0  0  0  0  0  0
   16.3109   -9.8069    9.4889 C   0  0  0  0  0  0  0  0  0  0  0  0
   16.9462   -9.2657    8.3643 C   0  0  0  0  0  0  0  0  0  0  0  0
   16.4091   -9.3616    7.2311 O   0  0  0  0  0  0  0  0  0  0  0  0
   18.1442   -8.6395    8.5447 N   0  0  0  0  0  0  0  0  0  0  0  0
   19.7525   -6.8123    5.7034 C   0  0  0  0  0  0  0  0  0  0  0  0
   18.7937   -7.8594    6.2442 C   0  0  0  0  0  0  0  0  0  0  0  0
   18.9307   -9.1783    5.5028 C   0  0  0  0  0  0  0  0  0  0  0  0
 34 35  1  0  0  0
 35 36  1  0  0  0
 35 24  1  0  0  0
 24 25  1  0  0  0
 25 26  2  0  0  0
 26 27  1  0  0  0
 27 28  2  0  0  0
 28 29  1  0  0  0
 29 23  1  0  0  0
 29 30  2  0  0  0
 23 22  1  0  0  0
 22  1  1  0  0  0
  1  2  2  0  0  0
  2  3  1  0  0  0
  3  8  1  0  0  0
  3  4  2  0  0  0
  8  9  1  0  0  0
  9 10  2  0  0  0
  9 12  1  0  0  0
 12 13  1  0  0  0
 13 14  1  0  0  0
 14 15  2  0  0  0
 15 16  1  0  0  0
 16 17  1  0  0  0
 16 18  2  0  0  0
 18 19  1  0  0  0
 19 20  1  0  0  0
 19 21  2  0  0  0
 21 14  1  0  0  0
  4  5  1  0  0  0
  5  6  2  0  0  0
  6  7  1  0  0  0
  6  1  1  0  0  0
 30 31  1  0  0  0
 31 32  2  0  0  0
 31 33  1  0  0  0
 33 24  1  0  0  0
 33 27  1  0  0  0
  8 11  1  0  0  0
M  END
>  <minimizedAffinity>
-9.02454

>  <minimizedRMSD>
2.61650

$$$$
ChemDiv-G355-2352 MCULE-8589145063 MolPort-010-840-362 PubChem-53084845 ZINC000064956234


 33 36  0  0  0  0  0  0  0  0999 V2000
   17.4404  -10.2666   14.2358 C   0  0  0  0  0  0  0  0  0  0  0  0
   18.0761  -11.4949   14.5586 C   0  0  0  0  0  0  0  0  0  0  0  0
   18.7405  -12.3672   13.5490 C   0  0  0  0  0  0  0  0  0  0  0  0
   18.0970  -11.9340   15.8860 C   0  0  0  0  0  0  0  0  0  0  0  0
   17.4989  -11.1790   16.8952 C   0  0  0  0  0  0  0  0  0  0  0  0
   16.8685   -9.9719   16.5923 C   0  0  0  0  0  0  0  0  0  0  0  0
   16.8462   -9.5260   15.2644 C   0  0  0  0  0  0  0  0  0  0  0  0
   16.2649   -9.2223   17.6556 N   0  0  0  0  0  0  0  0  0  0  0  0
   15.4084   -8.0807   17.5209 C   0  0  0  0  0  0  0  0  0  0  0  0
   15.0728   -7.6438   16.3885 O   0  0  0  0  0  0  0  0  0  0  0  0
   16.4588   -9.5227   18.5729 H   0  0  0  0  0  0  0  0  0  0  0  0
   14.8748   -7.4236   18.7427 C   0  0  0  0  0  0  0  0  0  0  0  0
   13.7447   -6.6310   18.4026 O   0  0  0  0  0  0  0  0  0  0  0  0
   12.9140   -6.0498   19.3641 C   0  0  0  0  0  0  0  0  0  0  0  0
   11.9012   -5.1789   18.9472 C   0  0  0  0  0  0  0  0  0  0  0  0
   11.0527   -4.5822   19.8849 C   0  0  0  0  0  0  0  0  0  0  0  0
   11.2133   -4.8545   21.2466 C   0  0  0  0  0  0  0  0  0  0  0  0
   12.2225   -5.7231   21.6713 C   0  0  0  0  0  0  0  0  0  0  0  0
   13.0711   -6.3195   20.7340 C   0  0  0  0  0  0  0  0  0  0  0  0
   10.3906   -4.2766   22.1542 F   0  0  0  0  0  0  0  0  0  0  0  0
   17.3582   -9.7246   12.9429 O   0  0  0  0  0  0  0  0  0  0  0  0
   18.4162   -9.0770   12.2508 C   0  0  0  0  0  0  0  0  0  0  0  0
   17.6689   -9.1744    8.0995 N   0  0  0  0  0  0  0  0  0  0  0  0
   17.5802   -9.0855    6.7453 C   0  0  0  0  0  0  0  0  0  0  0  0
   18.5966   -8.3127    6.1878 C   0  0  0  0  0  0  0  0  0  0  0  0
   19.6187   -7.7305    7.4041 S   0  0  0  0  0  0  0  0  0  0  0  0
   18.7226   -8.4921    8.6013 C   0  0  0  0  0  0  0  0  0  0  0  0
   18.9797   -8.4563    9.9316 N   0  0  0  0  0  0  0  0  0  0  0  0
   18.1611   -9.1303   10.7874 C   0  0  0  0  0  0  0  0  0  0  0  0
   17.0540   -9.8405   10.2973 C   0  0  0  0  0  0  0  0  0  0  0  0
   16.8201   -9.8542    8.9181 C   0  0  0  0  0  0  0  0  0  0  0  0
   15.8348  -10.4859    8.4513 O   0  0  0  0  0  0  0  0  0  0  0  0
   18.7590   -8.0371    4.7370 C   0  0  0  0  0  0  0  0  0  0  0  0
 23 24  1  0  0  0
 24 25  2  0  0  0
 25 26  1  0  0  0
 26 27  1  0  0  0
 27 28  2  0  0  0
 28 29  1  0  0  0
 29 22  1  0  0  0
 22 21  1  0  0  0
 21  1  1  0  0  0
  1  2  2  0  0  0
  2  3  1  0  0  0
  2  4  1  0  0  0
  4  5  2  0  0  0
  5  6  1  0  0  0
  6  7  2  0  0  0
  6  8  1  0  0  0
  8  9  1  0  0  0
  9 12  1  0  0  0
 12 13  1  0  0  0
 13 14  1  0  0  0
 14 15  2  0  0  0
 15 16  1  0  0  0
 16 17  2  0  0  0
 17 18  1  0  0  0
 18 19  2  0  0  0
 17 20  1  0  0  0
  9 10  2  0  0  0
 29 30  2  0  0  0
 30 31  1  0  0  0
 31 32  2  0  0  0
 25 33  1  0  0  0
 27 23  1  0  0  0
  7  1  1  0  0  0
 19 14  1  0  0  0
 31 23  1  0  0  0
  8 11  1  0  0  0
M  END
>  <minimizedAffinity>
-9.02382

>  <minimizedRMSD>
1.01985

$$$$
ChemDiv-C679-4207 MCULE-6480831674 MolPort-007-655-818 PubChem-20874232 ZINC000013368026


 34 37  0  0  0  0  0  0  0  0999 V2000
   17.9704  -10.4417   14.0053 C   0  0  0  0  0  0  0  0  0  0  0  0
   18.3680  -11.7613   14.2718 C   0  0  0  0  0  0  0  0  0  0  0  0
   18.1992  -12.3019   15.5486 C   0  0  0  0  0  0  0  0  0  0  0  0
   17.6329  -11.5287   16.5654 C   0  0  0  0  0  0  0  0  0  0  0  0
   17.2315  -10.2127   16.3141 C   0  0  0  0  0  0  0  0  0  0  0  0
   17.4045   -9.6756   15.0292 C   0  0  0  0  0  0  0  0  0  0  0  0
   16.6560   -9.4509   17.3841 N   0  0  0  0  0  0  0  0  0  0  0  0
   15.7839   -8.3203   17.2587 C   0  0  0  0  0  0  0  0  0  0  0  0
   15.4116   -7.9022   16.1307 O   0  0  0  0  0  0  0  0  0  0  0  0
   16.8833   -9.7336   18.2993 H   0  0  0  0  0  0  0  0  0  0  0  0
   15.2769   -7.6537   18.4866 C   0  0  0  0  0  0  0  0  0  0  0  0
   14.0434   -7.0070   18.2025 O   0  0  0  0  0  0  0  0  0  0  0  0
   13.2495   -6.4272   19.1954 C   0  0  0  0  0  0  0  0  0  0  0  0
   13.4157   -6.7482   20.5530 C   0  0  0  0  0  0  0  0  0  0  0  0
   12.6049   -6.1513   21.5225 C   0  0  0  0  0  0  0  0  0  0  0  0
   11.6244   -5.2309   21.1423 C   0  0  0  0  0  0  0  0  0  0  0  0
   11.4543   -4.9079   19.7932 C   0  0  0  0  0  0  0  0  0  0  0  0
   12.2653   -5.5049   18.8233 C   0  0  0  0  0  0  0  0  0  0  0  0
   10.6086   -4.4833   22.3557 Cl  0  0  0  0  0  0  0  0  0  0  0  0
   18.1264   -9.8701   12.7400 O   0  0  0  0  0  0  0  0  0  0  0  0
   17.0623   -9.2253   12.0525 C   0  0  0  0  0  0  0  0  0  0  0  0
   17.7896   -9.2306    7.8994 N   0  0  0  0  0  0  0  0  0  0  0  0
   16.8061  -10.0403    8.3735 C   0  0  0  0  0  0  0  0  0  0  0  0
   16.1298  -10.7615    7.5932 O   0  0  0  0  0  0  0  0  0  0  0  0
   16.5527  -10.0594    9.7496 C   0  0  0  0  0  0  0  0  0  0  0  0
   17.3293   -9.2447   10.5903 C   0  0  0  0  0  0  0  0  0  0  0  0
   18.2994   -8.4422   10.0675 N   0  0  0  0  0  0  0  0  0  0  0  0
   18.5147   -8.4519    8.7294 C   0  0  0  0  0  0  0  0  0  0  0  0
   19.6575   -7.5459    7.8966 S   0  0  0  0  0  0  0  0  0  0  0  0
   19.1402   -8.2322    6.4335 C   0  0  0  0  0  0  0  0  0  0  0  0
   18.1288   -9.1182    6.6175 N   0  0  0  0  0  0  0  0  0  0  0  0
   19.7314   -7.9076    5.1026 C   0  0  0  0  0  0  0  0  0  0  0  0
   20.1747   -6.4584    5.0597 C   0  0  0  0  0  0  0  0  0  0  0  0
   18.7242   -8.1701    4.0004 C   0  0  0  0  0  0  0  0  0  0  0  0
 22 23  1  0  0  0
 23 24  2  0  0  0
 23 25  1  0  0  0
 25 26  2  0  0  0
 26 27  1  0  0  0
 27 28  2  0  0  0
 28 29  1  0  0  0
 29 30  1  0  0  0
 30 32  1  0  0  0
 32 33  1  0  0  0
 32 34  1  0  0  0
 30 31  2  0  0  0
 26 21  1  0  0  0
 21 20  1  0  0  0
 20  1  1  0  0  0
  1  2  2  0  0  0
  2  3  1  0  0  0
  3  4  2  0  0  0
  4  5  1  0  0  0
  5  6  2  0  0  0
  5  7  1  0  0  0
  7  8  1  0  0  0
  8 11  1  0  0  0
 11 12  1  0  0  0
 12 13  1  0  0  0
 13 14  2  0  0  0
 14 15  1  0  0  0
 15 16  2  0  0  0
 16 17  1  0  0  0
 17 18  2  0  0  0
 16 19  1  0  0  0
  8  9  2  0  0  0
 28 22  1  0  0  0
  6  1  1  0  0  0
 18 13  1  0  0  0
 31 22  1  0  0  0
  7 10  1  0  0  0
M  END
>  <minimizedAffinity>
-9.01732

>  <minimizedRMSD>
1.18609

$$$$
ChemDiv-D439-4136 MCULE-8242117474 MolPort-007-706-769 PubChem-46268351 ZINC000021797089 ZINC21797089


 33 36  0  0  0  0  0  0  0  0999 V2000
   16.9964   -9.8269   14.2519 C   0  0  0  0  0  0  0  0  0  0  0  0
   16.4069   -9.1934   15.3520 C   0  0  0  0  0  0  0  0  0  0  0  0
   16.7139   -9.5734   16.6650 C   0  0  0  0  0  0  0  0  0  0  0  0
   17.6272  -10.6059   16.8792 C   0  0  0  0  0  0  0  0  0  0  0  0
   18.2268  -11.2517   15.7977 C   0  0  0  0  0  0  0  0  0  0  0  0
   17.9242  -10.8766   14.4851 C   0  0  0  0  0  0  0  0  0  0  0  0
   18.6122  -11.6226   13.3943 C   0  0  0  0  0  0  0  0  0  0  0  0
   16.1175   -8.9329   17.8011 N   0  0  0  0  0  0  0  0  0  0  0  0
   15.1100   -7.9092   17.7848 C   0  0  0  0  0  0  0  0  0  0  0  0
   14.6560   -7.4805   16.6897 O   0  0  0  0  0  0  0  0  0  0  0  0
   16.4322   -9.2261   18.6867 H   0  0  0  0  0  0  0  0  0  0  0  0
   14.6084   -7.3608   19.0651 C   0  0  0  0  0  0  0  0  0  0  0  0
   13.3967   -6.6408   19.1498 C   0  0  0  0  0  0  0  0  0  0  0  0
   12.6303   -6.4167   18.0534 F   0  0  0  0  0  0  0  0  0  0  0  0
   12.9624   -6.1411   20.3819 C   0  0  0  0  0  0  0  0  0  0  0  0
   13.7214   -6.3496   21.5350 C   0  0  0  0  0  0  0  0  0  0  0  0
   14.9203   -7.0600   21.4610 C   0  0  0  0  0  0  0  0  0  0  0  0
   15.3598   -7.5617   20.2336 C   0  0  0  0  0  0  0  0  0  0  0  0
   16.6152   -9.3645   12.9820 O   0  0  0  0  0  0  0  0  0  0  0  0
   16.3081  -10.1839   11.8632 C   0  0  0  0  0  0  0  0  0  0  0  0
   18.9729   -8.0038    7.5843 N   0  0  0  0  0  0  0  0  0  0  0  0
   20.0271   -7.5176    8.2859 C   0  0  0  0  0  0  0  0  0  0  0  0
   19.9108   -7.7999    9.6126 N   0  0  0  0  0  0  0  0  0  0  0  0
   18.7439   -8.4720    9.6550 C   0  0  0  0  0  0  0  0  0  0  0  0
   18.1652   -8.9800   10.7704 N   0  0  0  0  0  0  0  0  0  0  0  0
   16.9762   -9.6424   10.6507 C   0  0  0  0  0  0  0  0  0  0  0  0
   16.3566   -9.7801    9.3921 C   0  0  0  0  0  0  0  0  0  0  0  0
   16.9913   -9.2382    8.2677 C   0  0  0  0  0  0  0  0  0  0  0  0
   16.4709   -9.3439    7.1260 O   0  0  0  0  0  0  0  0  0  0  0  0
   18.1773   -8.5989    8.4537 N   0  0  0  0  0  0  0  0  0  0  0  0
   19.1386   -9.1851    5.4465 C   0  0  0  0  0  0  0  0  0  0  0  0
   18.7488   -7.8956    6.1445 C   0  0  0  0  0  0  0  0  0  0  0  0
   19.5375   -6.7342    5.5688 C   0  0  0  0  0  0  0  0  0  0  0  0
 31 32  1  0  0  0
 32 33  1  0  0  0
 32 21  1  0  0  0
 21 22  1  0  0  0
 22 23  2  0  0  0
 23 24  1  0  0  0
 24 25  2  0  0  0
 25 26  1  0  0  0
 26 20  1  0  0  0
 26 27  2  0  0  0
 20 19  1  0  0  0
 19  1  1  0  0  0
  1  2  2  0  0  0
  2  3  1  0  0  0
  3  8  1  0  0  0
  3  4  2  0  0  0
  8  9  1  0  0  0
  9 10  2  0  0  0
  9 12  1  0  0  0
 12 13  2  0  0  0
 13 14  1  0  0  0
 13 15  1  0  0  0
 15 16  2  0  0  0
 16 17  1  0  0  0
 17 18  2  0  0  0
 18 12  1  0  0  0
  4  5  1  0  0  0
  5  6  2  0  0  0
  6  7  1  0  0  0
  6  1  1  0  0  0
 27 28  1  0  0  0
 28 29  2  0  0  0
 28 30  1  0  0  0
 30 21  1  0  0  0
 30 24  1  0  0  0
  8 11  1  0  0  0
M  END
>  <minimizedAffinity>
-8.99611

>  <minimizedRMSD>
1.43579

$$$$
ChemDiv-G357-1296 CHEMBL1524414 MCULE-4815775207 MolPort-007-847-481 PubChem-16027478 ZINC000008607128 ZINC08607128


 35 39  0  0  0  0  0  0  0  0999 V2000
   16.6030   -9.1540   16.9171 C   0  0  0  0  0  0  0  0  0  0  0  0
   16.6599   -8.4736   15.6919 C   0  0  0  0  0  0  0  0  0  0  0  0
   17.2536   -9.0724   14.5774 C   0  0  0  0  0  0  0  0  0  0  0  0
   17.7984  -10.3593   14.6725 C   0  0  0  0  0  0  0  0  0  0  0  0
   17.7430  -11.0387   15.8974 C   0  0  0  0  0  0  0  0  0  0  0  0
   17.1497  -10.4381   17.0115 C   0  0  0  0  0  0  0  0  0  0  0  0
   14.8279   -7.7485   18.1275 C   0  0  0  0  0  0  0  0  0  0  0  0
   14.1884   -7.4842   17.0728 O   0  0  0  0  0  0  0  0  0  0  0  0
   16.0039   -8.5719   18.0828 N   0  0  0  0  0  0  0  0  0  0  0  0
   16.4453   -8.7562   18.9433 H   0  0  0  0  0  0  0  0  0  0  0  0
   13.4645   -6.1889   21.8822 C   0  0  0  0  0  0  0  0  0  0  0  0
   14.5631   -7.0626   21.8340 C   0  0  0  0  0  0  0  0  0  0  0  0
   15.0067   -7.5700   20.6098 C   0  0  0  0  0  0  0  0  0  0  0  0
   14.3604   -7.2120   19.4182 C   0  0  0  0  0  0  0  0  0  0  0  0
   13.2632   -6.3398   19.4697 C   0  0  0  0  0  0  0  0  0  0  0  0
   12.8188   -5.8325   20.6942 C   0  0  0  0  0  0  0  0  0  0  0  0
   13.8303   -5.5030   24.2303 C   0  0  0  0  0  0  0  0  0  0  0  0
   12.9970   -5.6638   23.0900 O   0  0  0  0  0  0  0  0  0  0  0  0
   18.4205  -10.9859   13.4953 C   0  0  0  0  0  0  0  0  0  0  0  0
   18.9038  -12.1492   13.5795 O   0  0  0  0  0  0  0  0  0  0  0  0
   18.4740  -10.2881   12.2869 O   0  0  0  0  0  0  0  0  0  0  0  0
   17.3206   -9.6928   11.7103 C   0  0  0  0  0  0  0  0  0  0  0  0
   17.5747   -9.4065   10.2736 C   0  0  0  0  0  0  0  0  0  0  0  0
   16.7795  -10.0160    9.2889 C   0  0  0  0  0  0  0  0  0  0  0  0
   17.0185   -9.7073    7.9451 C   0  0  0  0  0  0  0  0  0  0  0  0
   16.3232  -10.2378    7.0383 O   0  0  0  0  0  0  0  0  0  0  0  0
   18.0078   -8.8263    7.6410 N   0  0  0  0  0  0  0  0  0  0  0  0
   18.3300   -8.4419    6.4080 N   0  0  0  0  0  0  0  0  0  0  0  0
   19.3587   -7.5568    6.4005 C   0  0  0  0  0  0  0  0  0  0  0  0
   19.8913   -7.1924    7.9730 S   0  0  0  0  0  0  0  0  0  0  0  0
   18.7516   -8.2496    8.6083 C   0  0  0  0  0  0  0  0  0  0  0  0
   18.5487   -8.5205    9.9208 N   0  0  0  0  0  0  0  0  0  0  0  0
   19.8853   -6.9169    5.1585 C   0  0  0  0  0  0  0  0  0  0  0  0
   20.4487   -7.9747    4.2274 C   0  0  0  0  0  0  0  0  0  0  0  0
   21.3843   -7.1344    5.0659 C   0  0  0  0  0  0  0  0  0  0  0  0
 17 18  1  0  0  0
 18 11  1  0  0  0
 11 12  2  0  0  0
 12 13  1  0  0  0
 13 14  2  0  0  0
 14 15  1  0  0  0
 15 16  2  0  0  0
 14  7  1  0  0  0
  7  8  2  0  0  0
  7  9  1  0  0  0
  9  1  1  0  0  0
  1  2  2  0  0  0
  2  3  1  0  0  0
  3  4  2  0  0  0
  4  5  1  0  0  0
  5  6  2  0  0  0
  4 19  1  0  0  0
 19 20  2  0  0  0
 19 21  1  0  0  0
 21 22  1  0  0  0
 22 23  1  0  0  0
 23 24  2  0  0  0
 24 25  1  0  0  0
 25 26  2  0  0  0
 25 27  1  0  0  0
 27 28  1  0  0  0
 28 29  2  0  0  0
 29 30  1  0  0  0
 30 31  1  0  0  0
 31 32  2  0  0  0
 29 33  1  0  0  0
 33 34  1  0  0  0
 34 35  1  0  0  0
 16 11  1  0  0  0
  6  1  1  0  0  0
 32 23  1  0  0  0
 35 33  1  0  0  0
 31 27  1  0  0  0
  9 10  1  0  0  0
M  END
>  <minimizedAffinity>
-8.98724

>  <minimizedRMSD>
0.96106

$$$$
ChemDiv-G357-0009 MCULE-4631828913 MolPort-007-846-999 PubChem-46343192 ZINC000015771330


 32 35  0  0  0  0  0  0  0  0999 V2000
   17.5721  -10.1822   14.6945 C   0  0  0  0  0  0  0  0  0  0  0  0
   17.6317  -10.8320   15.9352 C   0  0  0  0  0  0  0  0  0  0  0  0
   17.0811  -10.2341   17.0723 C   0  0  0  0  0  0  0  0  0  0  0  0
   16.4650   -8.9816   16.9861 C   0  0  0  0  0  0  0  0  0  0  0  0
   16.4051   -8.3313   15.7447 C   0  0  0  0  0  0  0  0  0  0  0  0
   16.9550   -8.9278   14.6069 C   0  0  0  0  0  0  0  0  0  0  0  0
   15.9119   -8.4022   18.1758 N   0  0  0  0  0  0  0  0  0  0  0  0
   14.7019   -7.6346   18.2828 C   0  0  0  0  0  0  0  0  0  0  0  0
   14.0067   -7.4089   17.2571 O   0  0  0  0  0  0  0  0  0  0  0  0
   16.4158   -8.5459   19.0093 H   0  0  0  0  0  0  0  0  0  0  0  0
   14.2866   -7.1166   19.6115 C   0  0  0  0  0  0  0  0  0  0  0  0
   15.0432   -7.5037   20.7301 C   0  0  0  0  0  0  0  0  0  0  0  0
   14.7163   -7.0596   22.0121 C   0  0  0  0  0  0  0  0  0  0  0  0
   13.6222   -6.2169   22.1981 C   0  0  0  0  0  0  0  0  0  0  0  0
   12.8567   -5.8192   21.1021 C   0  0  0  0  0  0  0  0  0  0  0  0
   13.1738   -6.2574   19.8115 C   0  0  0  0  0  0  0  0  0  0  0  0
   12.1369   -5.6858   18.5107 Cl  0  0  0  0  0  0  0  0  0  0  0  0
   18.1498  -10.8065   13.4934 C   0  0  0  0  0  0  0  0  0  0  0  0
   18.5646  -11.9978   13.5373 O   0  0  0  0  0  0  0  0  0  0  0  0
   18.2362  -10.0744   12.3071 O   0  0  0  0  0  0  0  0  0  0  0  0
   17.0802   -9.6436   11.6041 C   0  0  0  0  0  0  0  0  0  0  0  0
   18.0436   -8.8419    7.5781 N   0  0  0  0  0  0  0  0  0  0  0  0
   18.4562   -8.4844    6.3644 N   0  0  0  0  0  0  0  0  0  0  0  0
   19.4874   -7.6076    6.4171 C   0  0  0  0  0  0  0  0  0  0  0  0
   19.9321   -7.2363    8.0118 S   0  0  0  0  0  0  0  0  0  0  0  0
   18.7313   -8.2621    8.5846 C   0  0  0  0  0  0  0  0  0  0  0  0
   18.4403   -8.5133    9.8843 N   0  0  0  0  0  0  0  0  0  0  0  0
   17.4311   -9.3796   10.1838 C   0  0  0  0  0  0  0  0  0  0  0  0
   16.6926   -9.9912    9.1572 C   0  0  0  0  0  0  0  0  0  0  0  0
   17.0240   -9.7051    7.8282 C   0  0  0  0  0  0  0  0  0  0  0  0
   16.3834  -10.2403    6.8849 O   0  0  0  0  0  0  0  0  0  0  0  0
   20.1421   -7.0439    5.2081 C   0  0  0  0  0  0  0  0  0  0  0  0
 22 23  1  0  0  0
 23 24  2  0  0  0
 24 25  1  0  0  0
 25 26  1  0  0  0
 26 27  2  0  0  0
 27 28  1  0  0  0
 28 21  1  0  0  0
 21 20  1  0  0  0
 20 18  1  0  0  0
 18 19  2  0  0  0
 18  1  1  0  0  0
  1  2  2  0  0  0
  2  3  1  0  0  0
  3  4  2  0  0  0
  4  5  1  0  0  0
  5  6  2  0  0  0
  4  7  1  0  0  0
  7  8  1  0  0  0
  8  9  2  0  0  0
  8 11  1  0  0  0
 11 12  2  0  0  0
 12 13  1  0  0  0
 13 14  2  0  0  0
 14 15  1  0  0  0
 15 16  2  0  0  0
 16 17  1  0  0  0
 28 29  2  0  0  0
 29 30  1  0  0  0
 30 31  2  0  0  0
 24 32  1  0  0  0
 26 22  1  0  0  0
  6  1  1  0  0  0
 16 11  1  0  0  0
 30 22  1  0  0  0
  7 10  1  0  0  0
M  END
>  <minimizedAffinity>
-8.98606

>  <minimizedRMSD>
0.99816

$$$$
ChemDiv-G756-0163 CHEMBL1512155 MCULE-8875312349 MolPort-007-879-003 PubChem-16030564 ZINC000008598067 ZINC08598067


 32 35  0  0  0  0  0  0  0  0999 V2000
   16.7401   -9.9207   16.8776 C   0  0  0  0  0  0  0  0  0  0  0  0
   16.7575   -9.5148   15.5347 C   0  0  0  0  0  0  0  0  0  0  0  0
   17.4606  -10.2489   14.5751 C   0  0  0  0  0  0  0  0  0  0  0  0
   18.1575  -11.4033   14.9655 C   0  0  0  0  0  0  0  0  0  0  0  0
   18.1477  -11.8126   16.3013 C   0  0  0  0  0  0  0  0  0  0  0  0
   17.4410  -11.0720   17.2530 C   0  0  0  0  0  0  0  0  0  0  0  0
   15.2017   -8.0292   17.6832 C   0  0  0  0  0  0  0  0  0  0  0  0
   15.0511   -7.5399   16.5306 O   0  0  0  0  0  0  0  0  0  0  0  0
   16.0230   -9.1907   17.8827 N   0  0  0  0  0  0  0  0  0  0  0  0
   16.1020   -9.5205   18.8069 H   0  0  0  0  0  0  0  0  0  0  0  0
   13.2468   -6.2014   21.0339 C   0  0  0  0  0  0  0  0  0  0  0  0
   14.4561   -6.8928   21.2090 C   0  0  0  0  0  0  0  0  0  0  0  0
   15.0919   -7.4886   20.1165 C   0  0  0  0  0  0  0  0  0  0  0  0
   14.5299   -7.4023   18.8360 C   0  0  0  0  0  0  0  0  0  0  0  0
   13.3216   -6.7108   18.6641 C   0  0  0  0  0  0  0  0  0  0  0  0
   12.6863   -6.1135   19.7563 C   0  0  0  0  0  0  0  0  0  0  0  0
   12.5913   -5.5849   22.1050 O   0  0  0  0  0  0  0  0  0  0  0  0
   12.1405   -4.9713   24.3937 C   0  0  0  0  0  0  0  0  0  0  0  0
   13.1920   -5.3834   23.3803 C   0  0  0  0  0  0  0  0  0  0  0  0
   17.4522   -9.8088   13.2492 O   0  0  0  0  0  0  0  0  0  0  0  0
   18.5897   -9.9026   12.4008 C   0  0  0  0  0  0  0  0  0  0  0  0
   18.1992   -9.5593   11.0079 C   0  0  0  0  0  0  0  0  0  0  0  0
   16.9733   -9.9834   10.5024 C   0  0  0  0  0  0  0  0  0  0  0  0
   16.6139   -9.6111    9.2079 C   0  0  0  0  0  0  0  0  0  0  0  0
   15.5048   -9.9984    8.7462 O   0  0  0  0  0  0  0  0  0  0  0  0
   17.4579   -8.8368    8.4572 N   0  0  0  0  0  0  0  0  0  0  0  0
   17.1048   -8.4724    7.1882 C   0  0  0  0  0  0  0  0  0  0  0  0
   17.9549   -7.6866    6.4079 C   0  0  0  0  0  0  0  0  0  0  0  0
   19.1765   -7.2716    6.9351 C   0  0  0  0  0  0  0  0  0  0  0  0
   19.5345   -7.6406    8.2304 C   0  0  0  0  0  0  0  0  0  0  0  0
   18.6626   -8.4255    8.9867 C   0  0  0  0  0  0  0  0  0  0  0  0
   19.0138   -8.7855   10.2480 N   0  0  0  0  0  0  0  0  0  0  0  0
 18 19  1  0  0  0
 19 17  1  0  0  0
 17 11  1  0  0  0
 11 12  2  0  0  0
 12 13  1  0  0  0
 13 14  2  0  0  0
 14 15  1  0  0  0
 14  7  1  0  0  0
 15 16  2  0  0  0
 16 11  1  0  0  0
  7  8  2  0  0  0
  7  9  1  0  0  0
  9  1  1  0  0  0
  1  2  2  0  0  0
  2  3  1  0  0  0
  3 20  1  0  0  0
  3  4  2  0  0  0
 20 21  1  0  0  0
 21 22  1  0  0  0
 22 23  2  0  0  0
 23 24  1  0  0  0
 24 25  2  0  0  0
 24 26  1  0  0  0
 26 27  1  0  0  0
 27 28  2  0  0  0
 28 29  1  0  0  0
 29 30  2  0  0  0
 30 31  1  0  0  0
 31 32  2  0  0  0
 31 26  1  0  0  0
 32 22  1  0  0  0
  4  5  1  0  0  0
  5  6  2  0  0  0
  6  1  1  0  0  0
  9 10  1  0  0  0
M  END
>  <minimizedAffinity>
-8.98569

>  <minimizedRMSD>
0.84200

$$$$
ChemDiv-G756-0119 CHEMBL1881576 MCULE-4978438094 MolPort-007-878-990 PubChem-16030536 ZINC000008619685 ZINC08619685


 30 33  0  0  0  0  0  0  0  0999 V2000
   16.8025   -9.9162   17.0152 C   0  0  0  0  0  0  0  0  0  0  0  0
   16.8471   -9.4452   15.6941 C   0  0  0  0  0  0  0  0  0  0  0  0
   17.4698  -10.1928   14.6897 C   0  0  0  0  0  0  0  0  0  0  0  0
   18.0551  -11.4271   15.0126 C   0  0  0  0  0  0  0  0  0  0  0  0
   18.0146  -11.9022   16.3256 C   0  0  0  0  0  0  0  0  0  0  0  0
   17.3900  -11.1478   17.3224 C   0  0  0  0  0  0  0  0  0  0  0  0
   15.3035   -8.0362   17.9221 C   0  0  0  0  0  0  0  0  0  0  0  0
   15.0185   -7.6044   16.7741 O   0  0  0  0  0  0  0  0  0  0  0  0
   16.1719   -9.1720   18.0666 N   0  0  0  0  0  0  0  0  0  0  0  0
   16.3535   -9.4717   18.9866 H   0  0  0  0  0  0  0  0  0  0  0  0
   12.1178   -7.0025   17.8245 Br  0  0  0  0  0  0  0  0  0  0  0  0
   13.4090   -6.9165   19.2395 C   0  0  0  0  0  0  0  0  0  0  0  0
   14.7437   -7.3925   19.1376 C   0  0  0  0  0  0  0  0  0  0  0  0
   15.5917   -7.2507   20.2487 C   0  0  0  0  0  0  0  0  0  0  0  0
   15.1423   -6.6606   21.4306 C   0  0  0  0  0  0  0  0  0  0  0  0
   13.8310   -6.1989   21.5219 C   0  0  0  0  0  0  0  0  0  0  0  0
   12.9717   -6.3266   20.4308 C   0  0  0  0  0  0  0  0  0  0  0  0
   17.4925   -9.6885   13.3870 O   0  0  0  0  0  0  0  0  0  0  0  0
   18.5602   -9.9429   12.4837 C   0  0  0  0  0  0  0  0  0  0  0  0
   18.1414   -9.5840   11.1032 C   0  0  0  0  0  0  0  0  0  0  0  0
   16.9217  -10.0339   10.6067 C   0  0  0  0  0  0  0  0  0  0  0  0
   16.5410   -9.6598    9.3189 C   0  0  0  0  0  0  0  0  0  0  0  0
   15.4376  -10.0703    8.8652 O   0  0  0  0  0  0  0  0  0  0  0  0
   17.3574   -8.8581    8.5665 N   0  0  0  0  0  0  0  0  0  0  0  0
   16.9831   -8.4918    7.3041 C   0  0  0  0  0  0  0  0  0  0  0  0
   17.8021   -7.6727    6.5249 C   0  0  0  0  0  0  0  0  0  0  0  0
   19.0146   -7.2256    7.0458 C   0  0  0  0  0  0  0  0  0  0  0  0
   19.3960   -7.5992    8.3331 C   0  0  0  0  0  0  0  0  0  0  0  0
   18.5551   -8.4206    9.0879 C   0  0  0  0  0  0  0  0  0  0  0  0
   18.9289   -8.7831   10.3422 N   0  0  0  0  0  0  0  0  0  0  0  0
 11 12  1  0  0  0
 12 13  2  0  0  0
 13 14  1  0  0  0
 13  7  1  0  0  0
 14 15  2  0  0  0
 15 16  1  0  0  0
 16 17  2  0  0  0
 17 12  1  0  0  0
  7  8  2  0  0  0
  7  9  1  0  0  0
  9  1  1  0  0  0
  1  2  2  0  0  0
  2  3  1  0  0  0
  3 18  1  0  0  0
  3  4  2  0  0  0
 18 19  1  0  0  0
 19 20  1  0  0  0
 20 21  2  0  0  0
 21 22  1  0  0  0
 22 23  2  0  0  0
 22 24  1  0  0  0
 24 25  1  0  0  0
 25 26  2  0  0  0
 26 27  1  0  0  0
 27 28  2  0  0  0
 28 29  1  0  0  0
 29 30  2  0  0  0
 29 24  1  0  0  0
 30 20  1  0  0  0
  4  5  1  0  0  0
  5  6  2  0  0  0
  6  1  1  0  0  0
  9 10  1  0  0  0
M  END
>  <minimizedAffinity>
-8.98516

>  <minimizedRMSD>
1.12714

$$$$
ChemDiv-F782-1900 MCULE-5751891510 MolPort-007-811-594 PubChem-46328808 ZINC000033020392 ZINC33020392


 31 34  0  0  0  0  0  0  0  0999 V2000
   16.5452   -9.0573   16.8940 C   0  0  0  0  0  0  0  0  0  0  0  0
   16.2918   -8.6666   15.6201 N   0  0  0  0  0  0  0  0  0  0  0  0
   16.9275   -9.4774   14.7377 C   0  0  0  0  0  0  0  0  0  0  0  0
   16.8638   -9.3343   13.3527 C   0  0  0  0  0  0  0  0  0  0  0  0
   17.5720  -10.2428   12.5389 C   0  0  0  0  0  0  0  0  0  0  0  0
   18.3262  -11.2739   13.1356 C   0  0  0  0  0  0  0  0  0  0  0  0
   18.3850  -11.4106   14.5312 C   0  0  0  0  0  0  0  0  0  0  0  0
   17.6755  -10.4972   15.3037 C   0  0  0  0  0  0  0  0  0  0  0  0
   17.5584  -10.4103   16.9755 S   0  0  0  0  0  0  0  0  0  0  0  0
   14.8015   -7.6418   18.0827 C   0  0  0  0  0  0  0  0  0  0  0  0
   14.0945   -7.5104   17.0485 O   0  0  0  0  0  0  0  0  0  0  0  0
   16.0178   -8.4003   18.0503 N   0  0  0  0  0  0  0  0  0  0  0  0
   16.5294   -8.4747   18.8881 H   0  0  0  0  0  0  0  0  0  0  0  0
   14.8990   -7.7498   20.5507 C   0  0  0  0  0  0  0  0  0  0  0  0
   14.3565   -6.9952   19.3523 C   0  0  0  0  0  0  0  0  0  0  0  0
   12.8424   -6.9431   19.4190 C   0  0  0  0  0  0  0  0  0  0  0  0
   17.5466  -10.1528   11.1081 N   0  0  0  0  0  0  0  0  0  0  0  0
   16.3930  -10.2542   10.2630 C   0  0  0  0  0  0  0  0  0  0  0  0
   15.2427  -10.4308   10.7444 O   0  0  0  0  0  0  0  0  0  0  0  0
   18.4107  -10.0063   10.6596 H   0  0  0  0  0  0  0  0  0  0  0  0
   16.5611  -10.1807    8.7842 C   0  0  0  0  0  0  0  0  0  0  0  0
   16.5127   -8.7347    8.3064 C   0  0  0  0  0  0  0  0  0  0  0  0
   17.8489   -8.2444    7.9929 N   0  0  0  0  0  0  0  0  0  0  0  0
   18.7521   -7.7563    8.8766 C   0  0  0  0  0  0  0  0  0  0  0  0
   19.9055   -7.3610    8.2720 N   0  0  0  0  0  0  0  0  0  0  0  0
   19.6837   -7.6183    6.9695 C   0  0  0  0  0  0  0  0  0  0  0  0
   20.5465   -7.3953    5.8992 C   0  0  0  0  0  0  0  0  0  0  0  0
   20.0863   -7.7406    4.6142 C   0  0  0  0  0  0  0  0  0  0  0  0
   18.7960   -8.2895    4.4356 C   0  0  0  0  0  0  0  0  0  0  0  0
   17.9491   -8.5013    5.5395 C   0  0  0  0  0  0  0  0  0  0  0  0
   18.4416   -8.1489    6.7954 C   0  0  0  0  0  0  0  0  0  0  0  0
 14 15  1  0  0  0
 15 16  1  0  0  0
 15 10  1  0  0  0
 10 11  2  0  0  0
 10 12  1  0  0  0
 12  1  1  0  0  0
  1  2  2  0  0  0
  2  3  1  0  0  0
  3  4  2  0  0  0
  4  5  1  0  0  0
  5 17  1  0  0  0
  5  6  2  0  0  0
 17 18  1  0  0  0
 18 19  2  0  0  0
 18 21  1  0  0  0
 21 22  1  0  0  0
 22 23  1  0  0  0
 23 24  1  0  0  0
 24 25  2  0  0  0
 25 26  1  0  0  0
 26 27  2  0  0  0
 27 28  1  0  0  0
 28 29  2  0  0  0
 29 30  1  0  0  0
 30 31  2  0  0  0
 31 23  1  0  0  0
 31 26  1  0  0  0
  6  7  1  0  0  0
  7  8  2  0  0  0
  8  9  1  0  0  0
  8  3  1  0  0  0
  9  1  1  0  0  0
 12 13  1  0  0  0
 17 20  1  0  0  0
M  END
>  <minimizedAffinity>
-8.97156

>  <minimizedRMSD>
2.49270

$$$$
ChemDiv-G357-2255 MCULE-6279716012 MolPort-007-847-797 PubChem-20953131 ZINC000015772085 ZINC15772085


 33 36  0  0  0  0  0  0  0  0999 V2000
   17.5721   -9.2177   11.8751 C   0  0  0  0  0  0  0  0  0  0  0  0
   17.6813   -9.1697   10.3931 C   0  0  0  0  0  0  0  0  0  0  0  0
   16.8578   -9.9893    9.6036 C   0  0  0  0  0  0  0  0  0  0  0  0
   16.9627   -9.9057    8.2108 C   0  0  0  0  0  0  0  0  0  0  0  0
   16.2417  -10.6307    7.4750 O   0  0  0  0  0  0  0  0  0  0  0  0
   17.8517   -9.0307    7.6720 N   0  0  0  0  0  0  0  0  0  0  0  0
   18.0477   -8.8524    6.3677 N   0  0  0  0  0  0  0  0  0  0  0  0
   19.0028   -7.9215    6.1183 C   0  0  0  0  0  0  0  0  0  0  0  0
   19.6357   -7.2619    7.5473 S   0  0  0  0  0  0  0  0  0  0  0  0
   18.6266   -8.2509    8.4547 C   0  0  0  0  0  0  0  0  0  0  0  0
   18.5546   -8.3024    9.8070 N   0  0  0  0  0  0  0  0  0  0  0  0
   19.4064   -7.4904    4.7482 C   0  0  0  0  0  0  0  0  0  0  0  0
   20.5679   -6.4844    4.8032 C   0  0  0  0  0  0  0  0  0  0  0  0
   21.9115   -7.1593    4.5345 C   0  0  0  0  0  0  0  0  0  0  0  0
   21.9429   -7.8207    3.1502 C   0  0  0  0  0  0  0  0  0  0  0  0
   20.5768   -8.3462    2.6865 C   0  0  0  0  0  0  0  0  0  0  0  0
   19.6892   -8.7175    3.8701 C   0  0  0  0  0  0  0  0  0  0  0  0
   18.3524  -10.2930   12.3764 O   0  0  0  0  0  0  0  0  0  0  0  0
   17.9615  -11.0282   13.4983 C   0  0  0  0  0  0  0  0  0  0  0  0
   18.0435  -12.2882   13.4936 O   0  0  0  0  0  0  0  0  0  0  0  0
   16.4745   -8.9857   16.9596 C   0  0  0  0  0  0  0  0  0  0  0  0
   16.2966   -8.4386   15.6801 C   0  0  0  0  0  0  0  0  0  0  0  0
   16.7839   -9.1051   14.5524 C   0  0  0  0  0  0  0  0  0  0  0  0
   17.4531  -10.3280   14.6884 C   0  0  0  0  0  0  0  0  0  0  0  0
   17.6305  -10.8749   15.9672 C   0  0  0  0  0  0  0  0  0  0  0  0
   17.1433  -10.2065   17.0941 C   0  0  0  0  0  0  0  0  0  0  0  0
   14.7558   -7.6006   18.2674 C   0  0  0  0  0  0  0  0  0  0  0  0
   13.9980   -7.4237   17.2771 O   0  0  0  0  0  0  0  0  0  0  0  0
   15.9828   -8.3354   18.1389 N   0  0  0  0  0  0  0  0  0  0  0  0
   16.5449   -8.3994   18.9446 H   0  0  0  0  0  0  0  0  0  0  0  0
   13.0138   -7.5659   20.0219 C   0  0  0  0  0  0  0  0  0  0  0  0
   14.3639   -7.0267   19.5889 C   0  0  0  0  0  0  0  0  0  0  0  0
   15.4076   -7.3532   20.6402 C   0  0  0  0  0  0  0  0  0  0  0  0
 31 32  1  0  0  0
 32 33  1  0  0  0
 32 27  1  0  0  0
 27 28  2  0  0  0
 27 29  1  0  0  0
 29 21  1  0  0  0
 21 22  2  0  0  0
 22 23  1  0  0  0
 23 24  2  0  0  0
 24 25  1  0  0  0
 24 19  1  0  0  0
 25 26  2  0  0  0
 26 21  1  0  0  0
 19 20  2  0  0  0
 19 18  1  0  0  0
 18  1  1  0  0  0
  1  2  1  0  0  0
  2  3  2  0  0  0
  3  4  1  0  0  0
  4  5  2  0  0  0
  4  6  1  0  0  0
  6  7  1  0  0  0
  7  8  2  0  0  0
  8  9  1  0  0  0
  8 12  1  0  0  0
  9 10  1  0  0  0
 10 11  2  0  0  0
 10  6  1  0  0  0
 11  2  1  0  0  0
 12 13  1  0  0  0
 13 14  1  0  0  0
 14 15  1  0  0  0
 15 16  1  0  0  0
 16 17  1  0  0  0
 17 12  1  0  0  0
 29 30  1  0  0  0
M  END
>  <minimizedAffinity>
-8.97090

>  <minimizedRMSD>
2.05647

$$$$
ChemDiv-G756-2821 MCULE-8498566854 MolPort-007-880-098 PubChem-46356809 ZINC000033068325 ZINC33068325


 36 39  0  0  0  0  0  0  0  0999 V2000
   17.4185  -10.0743   14.5716 C   0  0  0  0  0  0  0  0  0  0  0  0
   17.8720  -11.3730   14.8523 C   0  0  0  0  0  0  0  0  0  0  0  0
   17.8452  -11.8590   16.1618 C   0  0  0  0  0  0  0  0  0  0  0  0
   17.3670  -11.0515   17.1970 C   0  0  0  0  0  0  0  0  0  0  0  0
   16.9154   -9.7544   16.9324 C   0  0  0  0  0  0  0  0  0  0  0  0
   16.9424   -9.2733   15.6146 C   0  0  0  0  0  0  0  0  0  0  0  0
   16.4323   -8.9574   18.0217 N   0  0  0  0  0  0  0  0  0  0  0  0
   15.3430   -8.0252   17.9893 C   0  0  0  0  0  0  0  0  0  0  0  0
   14.6947   -7.8220   16.9295 O   0  0  0  0  0  0  0  0  0  0  0  0
   16.8976   -9.0610   18.8832 H   0  0  0  0  0  0  0  0  0  0  0  0
   14.9353   -7.3085   19.2352 C   0  0  0  0  0  0  0  0  0  0  0  0
   16.0630   -6.7195   19.8770 O   0  0  0  0  0  0  0  0  0  0  0  0
   16.2626   -6.7676   21.2610 C   0  0  0  0  0  0  0  0  0  0  0  0
   15.2432   -7.1707   22.1365 C   0  0  0  0  0  0  0  0  0  0  0  0
   15.4738   -7.2149   23.5132 C   0  0  0  0  0  0  0  0  0  0  0  0
   16.7307   -6.8726   24.0425 C   0  0  0  0  0  0  0  0  0  0  0  0
   17.7369   -6.4436   23.1587 C   0  0  0  0  0  0  0  0  0  0  0  0
   17.5060   -6.3986   21.7807 C   0  0  0  0  0  0  0  0  0  0  0  0
   16.9691   -6.8559   25.5403 C   0  0  0  0  0  0  0  0  0  0  0  0
   15.9155   -7.6558   26.2936 C   0  0  0  0  0  0  0  0  0  0  0  0
   16.9301   -5.4228   26.0366 C   0  0  0  0  0  0  0  0  0  0  0  0
   18.3245   -7.4525   25.8847 C   0  0  0  0  0  0  0  0  0  0  0  0
   17.4269   -9.5589   13.2726 O   0  0  0  0  0  0  0  0  0  0  0  0
   18.5921   -9.5491   12.4576 C   0  0  0  0  0  0  0  0  0  0  0  0
   20.0812   -6.9984    5.7429 C   0  0  0  0  0  0  0  0  0  0  0  0
   19.1698   -7.7181    6.6698 C   0  0  0  0  0  0  0  0  0  0  0  0
   19.5292   -7.8964    8.0047 C   0  0  0  0  0  0  0  0  0  0  0  0
   18.6621   -8.5739    8.8651 C   0  0  0  0  0  0  0  0  0  0  0  0
   19.0132   -8.7450   10.1662 N   0  0  0  0  0  0  0  0  0  0  0  0
   18.2000   -9.4030   11.0303 C   0  0  0  0  0  0  0  0  0  0  0  0
   16.9771   -9.9014   10.5913 C   0  0  0  0  0  0  0  0  0  0  0  0
   16.6192   -9.7235    9.2556 C   0  0  0  0  0  0  0  0  0  0  0  0
   15.5118  -10.1764    8.8554 O   0  0  0  0  0  0  0  0  0  0  0  0
   17.4608   -9.0625    8.4004 N   0  0  0  0  0  0  0  0  0  0  0  0
   17.1076   -8.8856    7.0917 C   0  0  0  0  0  0  0  0  0  0  0  0
   17.9524   -8.2129    6.2068 C   0  0  0  0  0  0  0  0  0  0  0  0
 25 26  1  0  0  0
 26 27  2  0  0  0
 27 28  1  0  0  0
 28 29  2  0  0  0
 29 30  1  0  0  0
 30 24  1  0  0  0
 30 31  2  0  0  0
 24 23  1  0  0  0
 23  1  1  0  0  0
  1  2  2  0  0  0
  2  3  1  0  0  0
  3  4  2  0  0  0
  4  5  1  0  0  0
  5  7  1  0  0  0
  5  6  2  0  0  0
  7  8  1  0  0  0
  8  9  2  0  0  0
  8 11  1  0  0  0
 11 12  1  0  0  0
 12 13  1  0  0  0
 13 14  2  0  0  0
 14 15  1  0  0  0
 15 16  2  0  0  0
 16 17  1  0  0  0
 16 19  1  0  0  0
 17 18  2  0  0  0
 18 13  1  0  0  0
 19 20  1  0  0  0
 19 21  1  0  0  0
 19 22  1  0  0  0
  6  1  1  0  0  0
 31 32  1  0  0  0
 32 33  2  0  0  0
 32 34  1  0  0  0
 34 35  1  0  0  0
 34 28  1  0  0  0
 35 36  2  0  0  0
 36 26  1  0  0  0
  7 10  1  0  0  0
M  END
>  <minimizedAffinity>
-8.96844

>  <minimizedRMSD>
2.67034

$$$$
ChemDiv-C679-6234 MCULE-3151795189 MolPort-007-656-242 PubChem-46258526 ZINC000013368504 ZINC13368504


 33 36  0  0  0  0  0  0  0  0999 V2000
   17.4195   -9.9641   14.8511 C   0  0  0  0  0  0  0  0  0  0  0  0
   18.0261  -11.1359   15.3302 C   0  0  0  0  0  0  0  0  0  0  0  0
   17.9522  -11.4616   16.6866 C   0  0  0  0  0  0  0  0  0  0  0  0
   17.2728  -10.6199   17.5711 C   0  0  0  0  0  0  0  0  0  0  0  0
   16.6637   -9.4491   17.1079 C   0  0  0  0  0  0  0  0  0  0  0  0
   16.7419   -9.1280   15.7441 C   0  0  0  0  0  0  0  0  0  0  0  0
   15.9744   -8.6126   18.0469 N   0  0  0  0  0  0  0  0  0  0  0  0
   14.8130   -7.8072   17.7932 C   0  0  0  0  0  0  0  0  0  0  0  0
   14.2910   -7.7765   16.6454 O   0  0  0  0  0  0  0  0  0  0  0  0
   16.3358   -8.5879   18.9624 H   0  0  0  0  0  0  0  0  0  0  0  0
   14.2258   -7.0091   18.8842 C   0  0  0  0  0  0  0  0  0  0  0  0
   13.1093   -6.1963   18.6479 C   0  0  0  0  0  0  0  0  0  0  0  0
   12.5545   -5.4388   19.6826 C   0  0  0  0  0  0  0  0  0  0  0  0
   13.1142   -5.4649   20.9722 C   0  0  0  0  0  0  0  0  0  0  0  0
   14.2168   -6.3050   21.2079 C   0  0  0  0  0  0  0  0  0  0  0  0
   14.7716   -7.0622   20.1730 C   0  0  0  0  0  0  0  0  0  0  0  0
   12.4685   -4.6980   22.1112 C   0  0  0  0  0  0  0  0  0  0  0  0
   13.4627   -3.7721   22.7960 C   0  0  0  0  0  0  0  0  0  0  0  0
   11.9386   -5.6806   23.1380 C   0  0  0  0  0  0  0  0  0  0  0  0
   11.3118   -3.8394   21.6213 C   0  0  0  0  0  0  0  0  0  0  0  0
   17.4740   -9.6092   13.5010 O   0  0  0  0  0  0  0  0  0  0  0  0
   18.3386  -10.2509   12.5728 C   0  0  0  0  0  0  0  0  0  0  0  0
   18.9677   -6.8448    6.1423 C   0  0  0  0  0  0  0  0  0  0  0  0
   18.6316   -7.6075    7.3731 C   0  0  0  0  0  0  0  0  0  0  0  0
   19.4675   -7.7446    8.4866 C   0  0  0  0  0  0  0  0  0  0  0  0
   18.6787   -8.5275    9.3077 C   0  0  0  0  0  0  0  0  0  0  0  0
   18.9725   -8.9873   10.5486 N   0  0  0  0  0  0  0  0  0  0  0  0
   18.0507   -9.7579   11.2002 C   0  0  0  0  0  0  0  0  0  0  0  0
   16.8108  -10.0551   10.5977 C   0  0  0  0  0  0  0  0  0  0  0  0
   16.5534   -9.5567    9.3147 C   0  0  0  0  0  0  0  0  0  0  0  0
   15.4632   -9.7975    8.7330 O   0  0  0  0  0  0  0  0  0  0  0  0
   17.5118   -8.8068    8.7198 N   0  0  0  0  0  0  0  0  0  0  0  0
   17.4929   -8.2474    7.5536 O   0  0  0  0  0  0  0  0  0  0  0  0
 23 24  1  0  0  0
 24 25  2  0  0  0
 25 26  1  0  0  0
 26 27  2  0  0  0
 27 28  1  0  0  0
 28 22  1  0  0  0
 28 29  2  0  0  0
 22 21  1  0  0  0
 21  1  1  0  0  0
  1  2  2  0  0  0
  2  3  1  0  0  0
  3  4  2  0  0  0
  4  5  1  0  0  0
  5  7  1  0  0  0
  5  6  2  0  0  0
  7  8  1  0  0  0
  8  9  2  0  0  0
  8 11  1  0  0  0
 11 12  2  0  0  0
 12 13  1  0  0  0
 13 14  2  0  0  0
 14 15  1  0  0  0
 14 17  1  0  0  0
 15 16  2  0  0  0
 16 11  1  0  0  0
 17 18  1  0  0  0
 17 19  1  0  0  0
 17 20  1  0  0  0
  6  1  1  0  0  0
 29 30  1  0  0  0
 30 31  2  0  0  0
 30 32  1  0  0  0
 32 33  1  0  0  0
 32 26  1  0  0  0
 33 24  1  0  0  0
  7 10  1  0  0  0
M  END
>  <minimizedAffinity>
-8.95336

>  <minimizedRMSD>
0.82623

$$$$
ChemDiv-G357-2493 MCULE-4011844887 MolPort-007-847-829 PubChem-16027575 ZINC000008607417


 35 39  0  0  0  0  0  0  0  0999 V2000
   17.8567  -10.6923   13.3521 C   0  0  0  0  0  0  0  0  0  0  0  0
   18.1360  -11.9229   13.3198 O   0  0  0  0  0  0  0  0  0  0  0  0
   17.3731  -10.0797   14.6003 C   0  0  0  0  0  0  0  0  0  0  0  0
   16.7258   -8.8385   14.5686 C   0  0  0  0  0  0  0  0  0  0  0  0
   16.2578   -8.2570   15.7502 C   0  0  0  0  0  0  0  0  0  0  0  0
   16.4322   -8.9086   16.9796 C   0  0  0  0  0  0  0  0  0  0  0  0
   17.0788  -10.1475   17.0102 C   0  0  0  0  0  0  0  0  0  0  0  0
   17.5468  -10.7307   15.8294 C   0  0  0  0  0  0  0  0  0  0  0  0
   15.9563   -8.3499   18.2119 N   0  0  0  0  0  0  0  0  0  0  0  0
   14.7414   -7.6114   18.4132 C   0  0  0  0  0  0  0  0  0  0  0  0
   13.9794   -7.3531   17.4425 O   0  0  0  0  0  0  0  0  0  0  0  0
   16.5234   -8.4875   19.0047 H   0  0  0  0  0  0  0  0  0  0  0  0
   14.3809   -7.1561   19.7679 C   0  0  0  0  0  0  0  0  0  0  0  0
   15.2615   -7.3618   20.8404 C   0  0  0  0  0  0  0  0  0  0  0  0
   14.9180   -6.9406   22.1285 C   0  0  0  0  0  0  0  0  0  0  0  0
   13.6906   -6.3108   22.3539 C   0  0  0  0  0  0  0  0  0  0  0  0
   12.8083   -6.0980   21.2906 C   0  0  0  0  0  0  0  0  0  0  0  0
   13.1521   -6.5191   20.0021 C   0  0  0  0  0  0  0  0  0  0  0  0
   13.3582   -5.9025   23.6017 F   0  0  0  0  0  0  0  0  0  0  0  0
   18.0019   -9.9067   12.2070 O   0  0  0  0  0  0  0  0  0  0  0  0
   16.8983   -9.5727   11.3786 C   0  0  0  0  0  0  0  0  0  0  0  0
   18.2210   -8.7925    7.4403 N   0  0  0  0  0  0  0  0  0  0  0  0
   18.8008   -8.3944    6.2683 C   0  0  0  0  0  0  0  0  0  0  0  0
   18.3749   -8.8520    4.8999 C   0  0  0  0  0  0  0  0  0  0  0  0
   18.8598   -7.8767    3.8244 C   0  0  0  0  0  0  0  0  0  0  0  0
   20.3601   -7.6187    3.9805 C   0  0  0  0  0  0  0  0  0  0  0  0
   20.6738   -6.9311    5.3154 C   0  0  0  0  0  0  0  0  0  0  0  0
   19.8915   -7.5405    6.4388 C   0  0  0  0  0  0  0  0  0  0  0  0
   20.1186   -7.2339    8.0832 S   0  0  0  0  0  0  0  0  0  0  0  0
   18.8364   -8.2351    8.5133 C   0  0  0  0  0  0  0  0  0  0  0  0
   18.4272   -8.4842    9.7811 N   0  0  0  0  0  0  0  0  0  0  0  0
   17.3760   -9.3225    9.9931 C   0  0  0  0  0  0  0  0  0  0  0  0
   16.7123   -9.9125    8.9076 C   0  0  0  0  0  0  0  0  0  0  0  0
   17.1567   -9.6335    7.6114 C   0  0  0  0  0  0  0  0  0  0  0  0
   16.5669  -10.1560    6.6276 O   0  0  0  0  0  0  0  0  0  0  0  0
 22 23  1  0  0  0
 23 24  1  0  0  0
 24 25  1  0  0  0
 25 26  1  0  0  0
 26 27  1  0  0  0
 27 28  1  0  0  0
 28 29  1  0  0  0
 29 30  1  0  0  0
 30 31  2  0  0  0
 31 32  1  0  0  0
 32 21  1  0  0  0
 21 20  1  0  0  0
 20  1  1  0  0  0
  1  2  2  0  0  0
  1  3  1  0  0  0
  3  4  2  0  0  0
  4  5  1  0  0  0
  5  6  2  0  0  0
  6  7  1  0  0  0
  7  8  2  0  0  0
  6  9  1  0  0  0
  9 10  1  0  0  0
 10 11  2  0  0  0
 10 13  1  0  0  0
 13 14  2  0  0  0
 14 15  1  0  0  0
 15 16  2  0  0  0
 16 17  1  0  0  0
 17 18  2  0  0  0
 16 19  1  0  0  0
 32 33  2  0  0  0
 33 34  1  0  0  0
 34 35  2  0  0  0
 30 22  1  0  0  0
  8  3  1  0  0  0
 18 13  1  0  0  0
 34 22  1  0  0  0
 28 23  2  0  0  0
  9 12  1  0  0  0
M  END
>  <minimizedAffinity>
-8.95114

>  <minimizedRMSD>
1.28118

$$$$
ChemDiv-D439-4134 MCULE-8781652386 MolPort-007-706-767 PubChem-46268349 ZINC000021797079 ZINC21797079


 33 36  0  0  0  0  0  0  0  0999 V2000
   17.1472  -10.0294   14.2985 C   0  0  0  0  0  0  0  0  0  0  0  0
   16.5279   -9.3846   15.3755 C   0  0  0  0  0  0  0  0  0  0  0  0
   16.6982   -9.8333   16.6916 C   0  0  0  0  0  0  0  0  0  0  0  0
   17.5022  -10.9475   16.9325 C   0  0  0  0  0  0  0  0  0  0  0  0
   18.1286  -11.6064   15.8744 C   0  0  0  0  0  0  0  0  0  0  0  0
   17.9624  -11.1627   14.5588 C   0  0  0  0  0  0  0  0  0  0  0  0
   18.6671  -11.9303   13.4936 C   0  0  0  0  0  0  0  0  0  0  0  0
   16.0704   -9.1819   17.8045 N   0  0  0  0  0  0  0  0  0  0  0  0
   15.2511   -8.0020   17.7661 C   0  0  0  0  0  0  0  0  0  0  0  0
   15.0212   -7.4287   16.6677 O   0  0  0  0  0  0  0  0  0  0  0  0
   16.2164   -9.5866   18.6899 H   0  0  0  0  0  0  0  0  0  0  0  0
   14.6827   -7.4704   19.0318 C   0  0  0  0  0  0  0  0  0  0  0  0
   13.3433   -7.0183   19.1621 C   0  0  0  0  0  0  0  0  0  0  0  0
   12.3684   -7.0325   18.0332 C   0  0  0  0  0  0  0  0  0  0  0  0
   12.8888   -6.5315   20.3927 C   0  0  0  0  0  0  0  0  0  0  0  0
   13.7395   -6.4853   21.4975 C   0  0  0  0  0  0  0  0  0  0  0  0
   15.0563   -6.9271   21.3799 C   0  0  0  0  0  0  0  0  0  0  0  0
   15.5212   -7.4146   20.1574 C   0  0  0  0  0  0  0  0  0  0  0  0
   16.9070   -9.4934   13.0230 O   0  0  0  0  0  0  0  0  0  0  0  0
   16.4496  -10.2234   11.8937 C   0  0  0  0  0  0  0  0  0  0  0  0
   18.9479   -8.0113    7.5316 N   0  0  0  0  0  0  0  0  0  0  0  0
   19.9866   -7.4597    8.2074 C   0  0  0  0  0  0  0  0  0  0  0  0
   19.9021   -7.7182    9.5413 N   0  0  0  0  0  0  0  0  0  0  0  0
   18.7697   -8.4446    9.6150 C   0  0  0  0  0  0  0  0  0  0  0  0
   18.2315   -8.9557   10.7490 N   0  0  0  0  0  0  0  0  0  0  0  0
   17.0745   -9.6768   10.6607 C   0  0  0  0  0  0  0  0  0  0  0  0
   16.4453   -9.8717    9.4145 C   0  0  0  0  0  0  0  0  0  0  0  0
   17.0379   -9.3246    8.2698 C   0  0  0  0  0  0  0  0  0  0  0  0
   16.5080   -9.4803    7.1381 O   0  0  0  0  0  0  0  0  0  0  0  0
   18.1938   -8.6248    8.4249 N   0  0  0  0  0  0  0  0  0  0  0  0
   19.2149   -9.1960    5.4060 C   0  0  0  0  0  0  0  0  0  0  0  0
   18.6993   -7.9453    6.0933 C   0  0  0  0  0  0  0  0  0  0  0  0
   19.3565   -6.7154    5.4953 C   0  0  0  0  0  0  0  0  0  0  0  0
 31 32  1  0  0  0
 32 33  1  0  0  0
 32 21  1  0  0  0
 21 22  1  0  0  0
 22 23  2  0  0  0
 23 24  1  0  0  0
 24 25  2  0  0  0
 25 26  1  0  0  0
 26 20  1  0  0  0
 26 27  2  0  0  0
 20 19  1  0  0  0
 19  1  1  0  0  0
  1  2  2  0  0  0
  2  3  1  0  0  0
  3  8  1  0  0  0
  3  4  2  0  0  0
  8  9  1  0  0  0
  9 10  2  0  0  0
  9 12  1  0  0  0
 12 13  2  0  0  0
 13 14  1  0  0  0
 13 15  1  0  0  0
 15 16  2  0  0  0
 16 17  1  0  0  0
 17 18  2  0  0  0
 18 12  1  0  0  0
  4  5  1  0  0  0
  5  6  2  0  0  0
  6  7  1  0  0  0
  6  1  1  0  0  0
 27 28  1  0  0  0
 28 29  2  0  0  0
 28 30  1  0  0  0
 30 21  1  0  0  0
 30 24  1  0  0  0
  8 11  1  0  0  0
M  END
>  <minimizedAffinity>
-8.94422

>  <minimizedRMSD>
1.44863

$$$$
ChemDiv-C679-5402 MCULE-9208099891 MolPort-010-797-223 PubChem-52098566 ZINC000041085721 ZINC41085721


 30 33  0  0  0  0  0  0  0  0999 V2000
   16.7769   -9.3777   14.1489 C   0  0  0  0  0  0  0  0  0  0  0  0
   18.0565   -9.9493   14.2287 C   0  0  0  0  0  0  0  0  0  0  0  0
   18.6891  -10.0863   15.4667 C   0  0  0  0  0  0  0  0  0  0  0  0
   18.0479   -9.6536   16.6304 C   0  0  0  0  0  0  0  0  0  0  0  0
   16.7728   -9.0822   16.5659 C   0  0  0  0  0  0  0  0  0  0  0  0
   16.1433   -8.9477   15.3190 C   0  0  0  0  0  0  0  0  0  0  0  0
   16.1483   -8.6506   17.7825 N   0  0  0  0  0  0  0  0  0  0  0  0
   14.9862   -7.8162   17.9058 C   0  0  0  0  0  0  0  0  0  0  0  0
   14.3980   -7.3787   16.8794 O   0  0  0  0  0  0  0  0  0  0  0  0
   16.5599   -8.9590   18.6220 H   0  0  0  0  0  0  0  0  0  0  0  0
   14.4762   -7.4679   19.2438 C   0  0  0  0  0  0  0  0  0  0  0  0
   13.2377   -6.8242   19.3868 C   0  0  0  0  0  0  0  0  0  0  0  0
   12.7549   -6.4941   20.6566 C   0  0  0  0  0  0  0  0  0  0  0  0
   11.5584   -5.8726   20.7854 F   0  0  0  0  0  0  0  0  0  0  0  0
   13.5066   -6.8051   21.7927 C   0  0  0  0  0  0  0  0  0  0  0  0
   14.7411   -7.4462   21.6595 C   0  0  0  0  0  0  0  0  0  0  0  0
   15.2240   -7.7763   20.3897 C   0  0  0  0  0  0  0  0  0  0  0  0
   16.1163   -9.2260   12.9273 O   0  0  0  0  0  0  0  0  0  0  0  0
   16.0464  -10.2635   11.9581 C   0  0  0  0  0  0  0  0  0  0  0  0
   18.4059   -8.6180    5.9460 C   0  0  0  0  0  0  0  0  0  0  0  0
   18.6772   -8.4066    7.3980 C   0  0  0  0  0  0  0  0  0  0  0  0
   19.7498   -7.6153    7.8198 C   0  0  0  0  0  0  0  0  0  0  0  0
   19.7388   -7.6081    9.5124 S   0  0  0  0  0  0  0  0  0  0  0  0
   18.3941   -8.5952    9.6216 C   0  0  0  0  0  0  0  0  0  0  0  0
   17.8080   -9.0131   10.7700 N   0  0  0  0  0  0  0  0  0  0  0  0
   16.7155   -9.8218   10.7061 C   0  0  0  0  0  0  0  0  0  0  0  0
   16.1933  -10.2046    9.4635 C   0  0  0  0  0  0  0  0  0  0  0  0
   16.8228   -9.7546    8.2981 C   0  0  0  0  0  0  0  0  0  0  0  0
   16.3641  -10.0958    7.1755 O   0  0  0  0  0  0  0  0  0  0  0  0
   17.9244   -8.9502    8.4049 N   0  0  0  0  0  0  0  0  0  0  0  0
 20 21  1  0  0  0
 21 22  2  0  0  0
 22 23  1  0  0  0
 23 24  1  0  0  0
 24 25  2  0  0  0
 25 26  1  0  0  0
 26 19  1  0  0  0
 26 27  2  0  0  0
 19 18  1  0  0  0
 18  1  1  0  0  0
  1  2  2  0  0  0
  2  3  1  0  0  0
  3  4  2  0  0  0
  4  5  1  0  0  0
  5  7  1  0  0  0
  5  6  2  0  0  0
  7  8  1  0  0  0
  8  9  2  0  0  0
  8 11  1  0  0  0
 11 12  2  0  0  0
 12 13  1  0  0  0
 13 14  1  0  0  0
 13 15  2  0  0  0
 15 16  1  0  0  0
 16 17  2  0  0  0
 17 11  1  0  0  0
  6  1  1  0  0  0
 27 28  1  0  0  0
 28 29  2  0  0  0
 28 30  1  0  0  0
 30 21  1  0  0  0
 30 24  1  0  0  0
  7 10  1  0  0  0
M  END
>  <minimizedAffinity>
-8.94219

>  <minimizedRMSD>
1.47049

$$$$
ChemDiv-G756-0215 MCULE-8386263678 MolPort-007-879-033 PubChem-46355925 ZINC000021099610 ZINC21099610


 33 36  0  0  0  0  0  0  0  0999 V2000
   17.7410  -10.2134   15.9583 C   0  0  0  0  0  0  0  0  0  0  0  0
   17.8064   -9.7711   14.6285 C   0  0  0  0  0  0  0  0  0  0  0  0
   18.1126  -10.6658   13.5907 C   0  0  0  0  0  0  0  0  0  0  0  0
   18.3536  -12.0094   13.8923 C   0  0  0  0  0  0  0  0  0  0  0  0
   18.2902  -12.4569   15.2145 C   0  0  0  0  0  0  0  0  0  0  0  0
   17.9849  -11.5609   16.2426 C   0  0  0  0  0  0  0  0  0  0  0  0
   16.0240   -7.9544   18.5312 N   0  0  0  0  0  0  0  0  0  0  0  0
   16.1330   -8.8429   17.4119 C   0  0  0  0  0  0  0  0  0  0  0  0
   15.1082   -9.1938   16.7674 O   0  0  0  0  0  0  0  0  0  0  0  0
   17.4309   -9.3243   17.0401 N   0  0  0  0  0  0  0  0  0  0  0  0
   16.8626   -7.7201   18.9906 H   0  0  0  0  0  0  0  0  0  0  0  0
   18.1892   -9.0118   17.5846 H   0  0  0  0  0  0  0  0  0  0  0  0
   12.4968   -6.2309   20.1527 C   0  0  0  0  0  0  0  0  0  0  0  0
   13.5561   -6.6140   20.9811 C   0  0  0  0  0  0  0  0  0  0  0  0
   14.7114   -7.1802   20.4341 C   0  0  0  0  0  0  0  0  0  0  0  0
   14.8222   -7.3703   19.0528 C   0  0  0  0  0  0  0  0  0  0  0  0
   13.7601   -6.9863   18.2207 C   0  0  0  0  0  0  0  0  0  0  0  0
   12.6047   -6.4203   18.7658 C   0  0  0  0  0  0  0  0  0  0  0  0
   10.3526   -5.0122   19.9658 C   0  0  0  0  0  0  0  0  0  0  0  0
   11.3555   -5.6679   20.7299 O   0  0  0  0  0  0  0  0  0  0  0  0
   18.1829  -10.2470   12.2597 O   0  0  0  0  0  0  0  0  0  0  0  0
   17.3792   -9.1938   11.7439 C   0  0  0  0  0  0  0  0  0  0  0  0
   17.5540   -9.1086   10.2700 C   0  0  0  0  0  0  0  0  0  0  0  0
   16.7855   -9.9095    9.4306 C   0  0  0  0  0  0  0  0  0  0  0  0
   16.9882   -9.8289    8.0538 C   0  0  0  0  0  0  0  0  0  0  0  0
   16.2894  -10.5509    7.2907 O   0  0  0  0  0  0  0  0  0  0  0  0
   17.9338   -8.9779    7.5470 N   0  0  0  0  0  0  0  0  0  0  0  0
   18.1317   -8.8996    6.1969 C   0  0  0  0  0  0  0  0  0  0  0  0
   19.0936   -8.0396    5.6639 C   0  0  0  0  0  0  0  0  0  0  0  0
   19.8587   -7.2539    6.5237 C   0  0  0  0  0  0  0  0  0  0  0  0
   19.6567   -7.3340    7.9003 C   0  0  0  0  0  0  0  0  0  0  0  0
   18.6860   -8.2036    8.4030 C   0  0  0  0  0  0  0  0  0  0  0  0
   18.4910   -8.2800    9.7448 N   0  0  0  0  0  0  0  0  0  0  0  0
 19 20  1  0  0  0
 20 13  1  0  0  0
 13 14  2  0  0  0
 14 15  1  0  0  0
 15 16  2  0  0  0
 16  7  1  0  0  0
 16 17  1  0  0  0
  7  8  1  0  0  0
  8  9  2  0  0  0
  8 10  1  0  0  0
 10  1  1  0  0  0
  1  2  2  0  0  0
  2  3  1  0  0  0
  3 21  1  0  0  0
  3  4  2  0  0  0
 21 22  1  0  0  0
 22 23  1  0  0  0
 23 24  2  0  0  0
 24 25  1  0  0  0
 25 26  2  0  0  0
 25 27  1  0  0  0
 27 28  1  0  0  0
 28 29  2  0  0  0
 29 30  1  0  0  0
 30 31  2  0  0  0
 31 32  1  0  0  0
 32 33  2  0  0  0
 32 27  1  0  0  0
 33 23  1  0  0  0
  4  5  1  0  0  0
  5  6  2  0  0  0
  6  1  1  0  0  0
 17 18  2  0  0  0
 18 13  1  0  0  0
  7 11  1  0  0  0
 10 12  1  0  0  0
M  END
>  <minimizedAffinity>
-8.93875

>  <minimizedRMSD>
1.48395

$$$$
ChemDiv-G756-0384 MCULE-2749202409 MolPort-010-744-645 PubChem-50802170 ZINC000033268563 ZINC33268563


 32 35  0  0  0  0  0  0  0  0999 V2000
   18.4849  -12.5617   14.0124 C   0  0  0  0  0  0  0  0  0  0  0  0
   17.9240  -11.5459   14.9471 C   0  0  0  0  0  0  0  0  0  0  0  0
   17.8632  -11.8926   16.3001 C   0  0  0  0  0  0  0  0  0  0  0  0
   17.3213  -11.0118   17.2366 C   0  0  0  0  0  0  0  0  0  0  0  0
   16.8239   -9.7726   16.8329 C   0  0  0  0  0  0  0  0  0  0  0  0
   16.8829   -9.4196   15.4782 C   0  0  0  0  0  0  0  0  0  0  0  0
   17.4318  -10.2836   14.5235 C   0  0  0  0  0  0  0  0  0  0  0  0
   16.2833   -8.8898   17.8250 N   0  0  0  0  0  0  0  0  0  0  0  0
   15.2292   -7.9354   17.6408 C   0  0  0  0  0  0  0  0  0  0  0  0
   14.6080   -7.8486   16.5483 O   0  0  0  0  0  0  0  0  0  0  0  0
   16.6765   -8.9447   18.7259 H   0  0  0  0  0  0  0  0  0  0  0  0
   14.8382   -7.0553   18.7740 C   0  0  0  0  0  0  0  0  0  0  0  0
   13.8884   -7.7956   19.7002 C   0  0  0  0  0  0  0  0  0  0  0  0
   13.8556   -7.1452   21.0410 C   0  0  0  0  0  0  0  0  0  0  0  0
   14.8237   -7.4787   21.9941 C   0  0  0  0  0  0  0  0  0  0  0  0
   14.7973   -6.8821   23.2585 C   0  0  0  0  0  0  0  0  0  0  0  0
   13.7999   -5.9542   23.5734 C   0  0  0  0  0  0  0  0  0  0  0  0
   12.8261   -5.6252   22.6256 C   0  0  0  0  0  0  0  0  0  0  0  0
   12.8517   -6.2219   21.3612 C   0  0  0  0  0  0  0  0  0  0  0  0
   17.4488   -9.8288   13.1957 O   0  0  0  0  0  0  0  0  0  0  0  0
   18.6204   -9.5748   12.4330 C   0  0  0  0  0  0  0  0  0  0  0  0
   18.2549   -9.3717   11.0064 C   0  0  0  0  0  0  0  0  0  0  0  0
   17.0766   -9.9171   10.5066 C   0  0  0  0  0  0  0  0  0  0  0  0
   16.7507   -9.7016    9.1684 C   0  0  0  0  0  0  0  0  0  0  0  0
   15.6845  -10.1991    8.7122 O   0  0  0  0  0  0  0  0  0  0  0  0
   17.5806   -8.9616    8.3695 N   0  0  0  0  0  0  0  0  0  0  0  0
   17.2612   -8.7527    7.0572 C   0  0  0  0  0  0  0  0  0  0  0  0
   18.0931   -7.9949    6.2306 C   0  0  0  0  0  0  0  0  0  0  0  0
   19.2622   -7.4467    6.7554 C   0  0  0  0  0  0  0  0  0  0  0  0
   19.5882   -7.6610    8.0932 C   0  0  0  0  0  0  0  0  0  0  0  0
   18.7359   -8.4248    8.8946 C   0  0  0  0  0  0  0  0  0  0  0  0
   19.0569   -8.6343   10.1975 N   0  0  0  0  0  0  0  0  0  0  0  0
  1  2  1  0  0  0
  2  3  2  0  0  0
  3  4  1  0  0  0
  4  5  2  0  0  0
  5  8  1  0  0  0
  5  6  1  0  0  0
  8  9  1  0  0  0
  9 10  2  0  0  0
  9 12  1  0  0  0
 12 13  1  0  0  0
 13 14  1  0  0  0
 14 15  2  0  0  0
 15 16  1  0  0  0
 16 17  2  0  0  0
 17 18  1  0  0  0
 18 19  2  0  0  0
 19 14  1  0  0  0
  6  7  2  0  0  0
  7 20  1  0  0  0
  7  2  1  0  0  0
 20 21  1  0  0  0
 21 22  1  0  0  0
 22 23  2  0  0  0
 23 24  1  0  0  0
 24 25  2  0  0  0
 24 26  1  0  0  0
 26 27  1  0  0  0
 27 28  2  0  0  0
 28 29  1  0  0  0
 29 30  2  0  0  0
 30 31  1  0  0  0
 31 32  2  0  0  0
 31 26  1  0  0  0
 32 22  1  0  0  0
  8 11  1  0  0  0
M  END
>  <minimizedAffinity>
-8.93697

>  <minimizedRMSD>
1.40911

$$$$
ChemDiv-D439-2901 MCULE-9900306082 MolPort-010-713-988 PubChem-50748720 ZINC000021796890 ZINC21796890


 34 37  0  0  0  0  0  0  0  0999 V2000
   16.8009   -9.4371   14.0163 C   0  0  0  0  0  0  0  0  0  0  0  0
   18.0795  -10.0162   14.0179 C   0  0  0  0  0  0  0  0  0  0  0  0
   18.7779  -10.1751   15.2173 C   0  0  0  0  0  0  0  0  0  0  0  0
   18.2032   -9.7576   16.4206 C   0  0  0  0  0  0  0  0  0  0  0  0
   16.9295   -9.1800   16.4343 C   0  0  0  0  0  0  0  0  0  0  0  0
   16.2343   -9.0224   15.2256 C   0  0  0  0  0  0  0  0  0  0  0  0
   16.3735   -8.7651   17.6894 N   0  0  0  0  0  0  0  0  0  0  0  0
   15.2420   -7.9069   17.8835 C   0  0  0  0  0  0  0  0  0  0  0  0
   14.5955   -7.4442   16.9067 O   0  0  0  0  0  0  0  0  0  0  0  0
   16.8145   -9.1047   18.5014 H   0  0  0  0  0  0  0  0  0  0  0  0
   14.7976   -7.5917   19.2663 C   0  0  0  0  0  0  0  0  0  0  0  0
   13.3839   -7.4454   19.2899 O   0  0  0  0  0  0  0  0  0  0  0  0
   12.7249   -6.6270   20.2110 C   0  0  0  0  0  0  0  0  0  0  0  0
   11.6645   -5.8278   19.7697 C   0  0  0  0  0  0  0  0  0  0  0  0
   10.9853   -4.9976   20.6665 C   0  0  0  0  0  0  0  0  0  0  0  0
   11.3647   -4.9625   22.0113 C   0  0  0  0  0  0  0  0  0  0  0  0
   10.5145   -3.9222   23.1329 Cl  0  0  0  0  0  0  0  0  0  0  0  0
   12.4227   -5.7576   22.4604 C   0  0  0  0  0  0  0  0  0  0  0  0
   13.1016   -6.5880   21.5639 C   0  0  0  0  0  0  0  0  0  0  0  0
   16.0762   -9.2625   12.8345 O   0  0  0  0  0  0  0  0  0  0  0  0
   16.0234  -10.2501   11.8133 C   0  0  0  0  0  0  0  0  0  0  0  0
   18.8759   -8.2290    7.5772 N   0  0  0  0  0  0  0  0  0  0  0  0
   19.7382   -7.4809    8.3103 C   0  0  0  0  0  0  0  0  0  0  0  0
   19.4878   -7.6014    9.6430 N   0  0  0  0  0  0  0  0  0  0  0  0
   18.4433   -8.4522    9.6564 C   0  0  0  0  0  0  0  0  0  0  0  0
   17.8039   -8.9006   10.7642 N   0  0  0  0  0  0  0  0  0  0  0  0
   16.7586   -9.7673   10.6146 C   0  0  0  0  0  0  0  0  0  0  0  0
   16.3432  -10.1737    9.3301 C   0  0  0  0  0  0  0  0  0  0  0  0
   17.0333   -9.6837    8.2144 C   0  0  0  0  0  0  0  0  0  0  0  0
   16.6942  -10.0261    7.0512 O   0  0  0  0  0  0  0  0  0  0  0  0
   18.0709   -8.8317    8.4325 N   0  0  0  0  0  0  0  0  0  0  0  0
   20.1465   -7.8914    5.5122 C   0  0  0  0  0  0  0  0  0  0  0  0
   18.8360   -8.3529    6.1219 C   0  0  0  0  0  0  0  0  0  0  0  0
   17.6846   -7.5470    5.5503 C   0  0  0  0  0  0  0  0  0  0  0  0
 32 33  1  0  0  0
 33 34  1  0  0  0
 33 22  1  0  0  0
 22 23  1  0  0  0
 23 24  2  0  0  0
 24 25  1  0  0  0
 25 26  2  0  0  0
 26 27  1  0  0  0
 27 21  1  0  0  0
 27 28  2  0  0  0
 21 20  1  0  0  0
 20  1  1  0  0  0
  1  2  2  0  0  0
  2  3  1  0  0  0
  3  4  2  0  0  0
  4  5  1  0  0  0
  5  7  1  0  0  0
  5  6  2  0  0  0
  7  8  1  0  0  0
  8  9  2  0  0  0
  8 11  1  0  0  0
 11 12  1  0  0  0
 12 13  1  0  0  0
 13 14  2  0  0  0
 14 15  1  0  0  0
 15 16  2  0  0  0
 16 17  1  0  0  0
 16 18  1  0  0  0
 18 19  2  0  0  0
 19 13  1  0  0  0
  6  1  1  0  0  0
 28 29  1  0  0  0
 29 30  2  0  0  0
 29 31  1  0  0  0
 31 22  1  0  0  0
 31 25  1  0  0  0
  7 10  1  0  0  0
M  END
>  <minimizedAffinity>
-8.93107

>  <minimizedRMSD>
1.32988

$$$$
ChemDiv-F172-0167 MCULE-2965843022 MolPort-010-736-210 PubChem-50764207


 33 36  0  0  0  0  0  0  0  0999 V2000
   17.3770  -10.1192   14.2936 C   0  0  0  0  0  0  0  0  0  0  0  0
   17.9600  -11.3535   14.6211 C   0  0  0  0  0  0  0  0  0  0  0  0
   17.9830  -11.7900   15.9478 C   0  0  0  0  0  0  0  0  0  0  0  0
   17.4242  -10.9972   16.9538 C   0  0  0  0  0  0  0  0  0  0  0  0
   16.8402   -9.7651   16.6421 C   0  0  0  0  0  0  0  0  0  0  0  0
   16.8205   -9.3328   15.3072 C   0  0  0  0  0  0  0  0  0  0  0  0
   16.2757   -8.9818   17.7020 N   0  0  0  0  0  0  0  0  0  0  0  0
   15.2354   -8.0001   17.5840 C   0  0  0  0  0  0  0  0  0  0  0  0
   14.7235   -7.7240   16.4670 O   0  0  0  0  0  0  0  0  0  0  0  0
   16.6393   -9.1330   18.6043 H   0  0  0  0  0  0  0  0  0  0  0  0
   14.7570   -7.2791   18.7981 C   0  0  0  0  0  0  0  0  0  0  0  0
   15.7063   -7.5096   19.9576 C   0  0  0  0  0  0  0  0  0  0  0  0
   13.4521   -7.7237   19.1483 O   0  0  0  0  0  0  0  0  0  0  0  0
   12.4268   -6.8456   19.5107 C   0  0  0  0  0  0  0  0  0  0  0  0
   11.1691   -6.9898   18.9151 C   0  0  0  0  0  0  0  0  0  0  0  0
   10.1234   -6.1261   19.2555 C   0  0  0  0  0  0  0  0  0  0  0  0
   10.3312   -5.1123   20.1950 C   0  0  0  0  0  0  0  0  0  0  0  0
   11.5848   -4.9614   20.7945 C   0  0  0  0  0  0  0  0  0  0  0  0
   11.8065   -3.8837   21.7931 C   0  0  0  0  0  0  0  0  0  0  0  0
   12.6302   -5.8248   20.4542 C   0  0  0  0  0  0  0  0  0  0  0  0
   17.3375   -9.6529   12.9772 O   0  0  0  0  0  0  0  0  0  0  0  0
   18.5083   -9.2973   12.2533 C   0  0  0  0  0  0  0  0  0  0  0  0
   17.6210   -9.1206    8.1551 N   0  0  0  0  0  0  0  0  0  0  0  0
   17.5641   -8.9172    6.8788 O   0  0  0  0  0  0  0  0  0  0  0  0
   18.6091   -8.1982    6.5184 C   0  0  0  0  0  0  0  0  0  0  0  0
   19.4179   -7.8990    7.6201 C   0  0  0  0  0  0  0  0  0  0  0  0
   18.7176   -8.5257    8.6330 C   0  0  0  0  0  0  0  0  0  0  0  0
   19.0297   -8.5739    9.9514 N   0  0  0  0  0  0  0  0  0  0  0  0
   18.2015   -9.2544   10.7992 C   0  0  0  0  0  0  0  0  0  0  0  0
   17.0356   -9.8809   10.3125 C   0  0  0  0  0  0  0  0  0  0  0  0
   16.7556   -9.8024    8.9429 C   0  0  0  0  0  0  0  0  0  0  0  0
   15.7292  -10.3481    8.4595 O   0  0  0  0  0  0  0  0  0  0  0  0
   18.8780   -7.7694    5.1208 C   0  0  0  0  0  0  0  0  0  0  0  0
 23 24  1  0  0  0
 24 25  1  0  0  0
 25 26  2  0  0  0
 26 27  1  0  0  0
 27 28  2  0  0  0
 28 29  1  0  0  0
 29 22  1  0  0  0
 22 21  1  0  0  0
 21  1  1  0  0  0
  1  2  2  0  0  0
  2  3  1  0  0  0
  3  4  2  0  0  0
  4  5  1  0  0  0
  5  6  2  0  0  0
  5  7  1  0  0  0
  7  8  1  0  0  0
  8  9  2  0  0  0
  8 11  1  0  0  0
 11 12  1  0  0  0
 11 13  1  0  0  0
 13 14  1  0  0  0
 14 15  2  0  0  0
 15 16  1  0  0  0
 16 17  2  0  0  0
 17 18  1  0  0  0
 18 19  1  0  0  0
 18 20  2  0  0  0
 29 30  2  0  0  0
 30 31  1  0  0  0
 31 32  2  0  0  0
 25 33  1  0  0  0
 27 23  1  0  0  0
  6  1  1  0  0  0
 20 14  1  0  0  0
 31 23  1  0  0  0
  7 10  1  0  0  0
M  END
>  <minimizedAffinity>
-8.92392

>  <minimizedRMSD>
1.39425

$$$$
ChemDiv-G355-3281 MCULE-3365813858 MolPort-010-743-036 PubChem-50793966 ZINC000035428429 ZINC35428429


 33 36  0  0  0  0  0  0  0  0999 V2000
   17.4377  -10.2262   14.3422 C   0  0  0  0  0  0  0  0  0  0  0  0
   16.8602   -9.4086   15.3205 C   0  0  0  0  0  0  0  0  0  0  0  0
   16.8541   -9.7794   16.6712 C   0  0  0  0  0  0  0  0  0  0  0  0
   17.4293  -10.9931   17.0461 C   0  0  0  0  0  0  0  0  0  0  0  0
   18.0027  -11.8278   16.0871 C   0  0  0  0  0  0  0  0  0  0  0  0
   18.0151  -11.4611   14.7383 C   0  0  0  0  0  0  0  0  0  0  0  0
   18.6213  -12.4274   13.7801 C   0  0  0  0  0  0  0  0  0  0  0  0
   16.2645   -8.9522   17.6836 N   0  0  0  0  0  0  0  0  0  0  0  0
   15.2303   -7.9778   17.4967 C   0  0  0  0  0  0  0  0  0  0  0  0
   14.7707   -7.7212   16.3526 O   0  0  0  0  0  0  0  0  0  0  0  0
   16.6050   -9.0652   18.6004 H   0  0  0  0  0  0  0  0  0  0  0  0
   14.7152   -7.2267   18.6716 C   0  0  0  0  0  0  0  0  0  0  0  0
   15.5231   -7.5079   19.8072 O   0  0  0  0  0  0  0  0  0  0  0  0
   15.2088   -7.0497   21.0892 C   0  0  0  0  0  0  0  0  0  0  0  0
   16.2482   -6.7780   21.9857 C   0  0  0  0  0  0  0  0  0  0  0  0
   15.9660   -6.3159   23.2745 C   0  0  0  0  0  0  0  0  0  0  0  0
   14.6404   -6.1240   23.6737 C   0  0  0  0  0  0  0  0  0  0  0  0
   14.2883   -5.5437   25.2869 Cl  0  0  0  0  0  0  0  0  0  0  0  0
   13.5961   -6.3933   22.7845 C   0  0  0  0  0  0  0  0  0  0  0  0
   13.8782   -6.8551   21.4961 C   0  0  0  0  0  0  0  0  0  0  0  0
   17.3942   -9.7548   13.0211 O   0  0  0  0  0  0  0  0  0  0  0  0
   18.5010   -9.2382   12.2948 C   0  0  0  0  0  0  0  0  0  0  0  0
   18.7980   -7.8606    5.1291 C   0  0  0  0  0  0  0  0  0  0  0  0
   18.5459   -8.2651    6.5369 C   0  0  0  0  0  0  0  0  0  0  0  0
   19.3689   -7.9481    7.6226 C   0  0  0  0  0  0  0  0  0  0  0  0
   18.6786   -8.5527    8.6557 C   0  0  0  0  0  0  0  0  0  0  0  0
   19.0048   -8.5738    9.9709 N   0  0  0  0  0  0  0  0  0  0  0  0
   18.1826   -9.2315   10.8426 C   0  0  0  0  0  0  0  0  0  0  0  0
   17.0104   -9.8657   10.3822 C   0  0  0  0  0  0  0  0  0  0  0  0
   16.7166   -9.8171    9.0141 C   0  0  0  0  0  0  0  0  0  0  0  0
   15.6843  -10.3722    8.5539 O   0  0  0  0  0  0  0  0  0  0  0  0
   17.5751   -9.1538    8.2027 N   0  0  0  0  0  0  0  0  0  0  0  0
   17.5034   -8.9745    6.9236 O   0  0  0  0  0  0  0  0  0  0  0  0
 23 24  1  0  0  0
 24 25  2  0  0  0
 25 26  1  0  0  0
 26 27  2  0  0  0
 27 28  1  0  0  0
 28 22  1  0  0  0
 28 29  2  0  0  0
 22 21  1  0  0  0
 21  1  1  0  0  0
  1  2  2  0  0  0
  2  3  1  0  0  0
  3  8  1  0  0  0
  3  4  2  0  0  0
  8  9  1  0  0  0
  9 10  2  0  0  0
  9 12  1  0  0  0
 12 13  1  0  0  0
 13 14  1  0  0  0
 14 15  2  0  0  0
 15 16  1  0  0  0
 16 17  2  0  0  0
 17 18  1  0  0  0
 17 19  1  0  0  0
 19 20  2  0  0  0
 20 14  1  0  0  0
  4  5  1  0  0  0
  5  6  2  0  0  0
  6  7  1  0  0  0
  6  1  1  0  0  0
 29 30  1  0  0  0
 30 31  2  0  0  0
 30 32  1  0  0  0
 32 33  1  0  0  0
 32 26  1  0  0  0
 33 24  1  0  0  0
  8 11  1  0  0  0
M  END
>  <minimizedAffinity>
-8.89310

>  <minimizedRMSD>
1.49887

$$$$
ChemDiv-C679-5356 MCULE-3379816827 MolPort-007-656-076 PubChem-46258455 ZINC000021369036 ZINC21369036


 29 32  0  0  0  0  0  0  0  0999 V2000
   16.7947   -9.4270   14.0428 C   0  0  0  0  0  0  0  0  0  0  0  0
   18.0919   -9.9630   14.0612 C   0  0  0  0  0  0  0  0  0  0  0  0
   18.7772  -10.1037   15.2703 C   0  0  0  0  0  0  0  0  0  0  0  0
   18.1713   -9.7103   16.4664 C   0  0  0  0  0  0  0  0  0  0  0  0
   16.8792   -9.1747   16.4632 C   0  0  0  0  0  0  0  0  0  0  0  0
   16.1967   -9.0363   15.2449 C   0  0  0  0  0  0  0  0  0  0  0  0
   16.2921   -8.7830   17.7115 N   0  0  0  0  0  0  0  0  0  0  0  0
   15.1611   -7.9179   17.8982 C   0  0  0  0  0  0  0  0  0  0  0  0
   14.5697   -7.4112   16.9062 O   0  0  0  0  0  0  0  0  0  0  0  0
   16.7084   -9.1454   18.5267 H   0  0  0  0  0  0  0  0  0  0  0  0
   14.6876   -7.6195   19.2615 C   0  0  0  0  0  0  0  0  0  0  0  0
   15.6027   -7.3031   20.2763 C   0  0  0  0  0  0  0  0  0  0  0  0
   15.1545   -7.0198   21.5699 C   0  0  0  0  0  0  0  0  0  0  0  0
   13.7875   -7.0511   21.8583 C   0  0  0  0  0  0  0  0  0  0  0  0
   12.8686   -7.3653   20.8534 C   0  0  0  0  0  0  0  0  0  0  0  0
   13.3168   -7.6485   19.5598 C   0  0  0  0  0  0  0  0  0  0  0  0
   16.0816   -9.2728   12.8512 O   0  0  0  0  0  0  0  0  0  0  0  0
   16.0090  -10.2916   11.8626 C   0  0  0  0  0  0  0  0  0  0  0  0
   18.4490   -8.5786    5.9017 C   0  0  0  0  0  0  0  0  0  0  0  0
   18.6976   -8.3795    7.3595 C   0  0  0  0  0  0  0  0  0  0  0  0
   19.7600   -7.5872    7.8045 C   0  0  0  0  0  0  0  0  0  0  0  0
   19.7238   -7.5956    9.4966 S   0  0  0  0  0  0  0  0  0  0  0  0
   18.3824   -8.5900    9.5768 C   0  0  0  0  0  0  0  0  0  0  0  0
   17.7816   -9.0214   10.7125 N   0  0  0  0  0  0  0  0  0  0  0  0
   16.6940   -9.8347   10.6249 C   0  0  0  0  0  0  0  0  0  0  0  0
   16.1923  -10.2085    9.3711 C   0  0  0  0  0  0  0  0  0  0  0  0
   16.8368   -9.7447    8.2194 C   0  0  0  0  0  0  0  0  0  0  0  0
   16.3966  -10.0777    7.0871 O   0  0  0  0  0  0  0  0  0  0  0  0
   17.9325   -8.9359    8.3501 N   0  0  0  0  0  0  0  0  0  0  0  0
 19 20  1  0  0  0
 20 21  2  0  0  0
 21 22  1  0  0  0
 22 23  1  0  0  0
 23 24  2  0  0  0
 24 25  1  0  0  0
 25 18  1  0  0  0
 25 26  2  0  0  0
 18 17  1  0  0  0
 17  1  1  0  0  0
  1  2  2  0  0  0
  2  3  1  0  0  0
  3  4  2  0  0  0
  4  5  1  0  0  0
  5  7  1  0  0  0
  5  6  2  0  0  0
  7  8  1  0  0  0
  8  9  2  0  0  0
  8 11  1  0  0  0
 11 12  2  0  0  0
 12 13  1  0  0  0
 13 14  2  0  0  0
 14 15  1  0  0  0
 15 16  2  0  0  0
 16 11  1  0  0  0
  6  1  1  0  0  0
 26 27  1  0  0  0
 27 28  2  0  0  0
 27 29  1  0  0  0
 29 20  1  0  0  0
 29 23  1  0  0  0
  7 10  1  0  0  0
M  END
>  <minimizedAffinity>
-8.88900

>  <minimizedRMSD>
1.47768

$$$$
ChemDiv-G756-2314 MCULE-3219020235 MolPort-007-880-013 PubChem-46356746 ZINC000033068272 ZINC33068272


 34 37  0  0  0  0  0  0  0  0999 V2000
   17.7513  -10.1685   15.9305 C   0  0  0  0  0  0  0  0  0  0  0  0
   17.8140   -9.7329   14.5985 C   0  0  0  0  0  0  0  0  0  0  0  0
   18.1294  -10.6304   13.5658 C   0  0  0  0  0  0  0  0  0  0  0  0
   18.3823  -11.9700   13.8750 C   0  0  0  0  0  0  0  0  0  0  0  0
   18.3217  -12.4109   15.1995 C   0  0  0  0  0  0  0  0  0  0  0  0
   18.0072  -11.5121   16.2225 C   0  0  0  0  0  0  0  0  0  0  0  0
   16.0042   -7.9953   18.5566 N   0  0  0  0  0  0  0  0  0  0  0  0
   16.1218   -8.9067   17.4567 C   0  0  0  0  0  0  0  0  0  0  0  0
   15.0940   -9.3737   16.8960 O   0  0  0  0  0  0  0  0  0  0  0  0
   17.4317   -9.2765   17.0072 N   0  0  0  0  0  0  0  0  0  0  0  0
   16.8456   -7.6677   18.9488 H   0  0  0  0  0  0  0  0  0  0  0  0
   18.1918   -8.8761   17.4881 H   0  0  0  0  0  0  0  0  0  0  0  0
   12.6342   -6.3876   18.9929 C   0  0  0  0  0  0  0  0  0  0  0  0
   12.4404   -6.5896   20.3686 C   0  0  0  0  0  0  0  0  0  0  0  0
   13.4129   -7.2462   21.1266 C   0  0  0  0  0  0  0  0  0  0  0  0
   14.5831   -7.7043   20.5158 C   0  0  0  0  0  0  0  0  0  0  0  0
   14.7900   -7.5102   19.1462 C   0  0  0  0  0  0  0  0  0  0  0  0
   13.8087   -6.8497   18.3908 C   0  0  0  0  0  0  0  0  0  0  0  0
   11.2539   -4.4045   18.4634 C   0  0  0  0  0  0  0  0  0  0  0  0
   11.6816   -5.7349   18.2057 O   0  0  0  0  0  0  0  0  0  0  0  0
   18.1971  -10.2181   12.2327 O   0  0  0  0  0  0  0  0  0  0  0  0
   17.3965   -9.1638   11.7145 C   0  0  0  0  0  0  0  0  0  0  0  0
   17.5671   -9.0861   10.2398 C   0  0  0  0  0  0  0  0  0  0  0  0
   16.7975   -9.8927    9.4068 C   0  0  0  0  0  0  0  0  0  0  0  0
   16.9963   -9.8192    8.0290 C   0  0  0  0  0  0  0  0  0  0  0  0
   16.2969  -10.5467    7.2717 O   0  0  0  0  0  0  0  0  0  0  0  0
   17.9392   -8.9694    7.5151 N   0  0  0  0  0  0  0  0  0  0  0  0
   18.1331   -8.8981    6.1644 C   0  0  0  0  0  0  0  0  0  0  0  0
   19.0922   -8.0393    5.6254 C   0  0  0  0  0  0  0  0  0  0  0  0
   19.3297   -7.9584    3.8936 Cl  0  0  0  0  0  0  0  0  0  0  0  0
   19.8596   -7.2481    6.4775 C   0  0  0  0  0  0  0  0  0  0  0  0
   19.6613   -7.3213    7.8551 C   0  0  0  0  0  0  0  0  0  0  0  0
   18.6928   -8.1896    8.3649 C   0  0  0  0  0  0  0  0  0  0  0  0
   18.5015   -8.2590    9.7076 N   0  0  0  0  0  0  0  0  0  0  0  0
 19 20  1  0  0  0
 20 13  1  0  0  0
 13 14  2  0  0  0
 14 15  1  0  0  0
 15 16  2  0  0  0
 16 17  1  0  0  0
 17  7  1  0  0  0
  7  8  1  0  0  0
  8  9  2  0  0  0
  8 10  1  0  0  0
 10  1  1  0  0  0
  1  2  2  0  0  0
  2  3  1  0  0  0
  3 21  1  0  0  0
 21 22  1  0  0  0
 22 23  1  0  0  0
 23 24  2  0  0  0
 24 25  1  0  0  0
 25 26  2  0  0  0
 25 27  1  0  0  0
 27 28  1  0  0  0
 28 29  2  0  0  0
 29 30  1  0  0  0
 29 31  1  0  0  0
 31 32  2  0  0  0
 32 33  1  0  0  0
 33 34  2  0  0  0
  3  4  2  0  0  0
  4  5  1  0  0  0
  5  6  2  0  0  0
 17 18  2  0  0  0
 18 13  1  0  0  0
  6  1  1  0  0  0
 34 23  1  0  0  0
 33 27  1  0  0  0
  7 11  1  0  0  0
 10 12  1  0  0  0
M  END
>  <minimizedAffinity>
-8.88836

>  <minimizedRMSD>
1.46859

$$$$
ChemDiv-F172-0168 MCULE-5058658635 MolPort-010-736-211 PubChem-50764208


 33 36  0  0  0  0  0  0  0  0999 V2000
   16.8577   -9.6035   16.8609 C   0  0  0  0  0  0  0  0  0  0  0  0
   16.9420   -9.1965   15.5206 C   0  0  0  0  0  0  0  0  0  0  0  0
   17.4294  -10.0657   14.5396 C   0  0  0  0  0  0  0  0  0  0  0  0
   17.8370  -11.3582   14.9056 C   0  0  0  0  0  0  0  0  0  0  0  0
   17.7549  -11.7702   16.2380 C   0  0  0  0  0  0  0  0  0  0  0  0
   17.2666  -10.8944   17.2111 C   0  0  0  0  0  0  0  0  0  0  0  0
   15.2139   -7.8754   17.8051 C   0  0  0  0  0  0  0  0  0  0  0  0
   14.5221   -7.8112   16.7550 O   0  0  0  0  0  0  0  0  0  0  0  0
   16.3601   -8.7352   17.8878 N   0  0  0  0  0  0  0  0  0  0  0  0
   16.8562   -8.7282   18.7381 H   0  0  0  0  0  0  0  0  0  0  0  0
   14.8003   -7.9010   20.2354 C   0  0  0  0  0  0  0  0  0  0  0  0
   14.8248   -7.0448   18.9802 C   0  0  0  0  0  0  0  0  0  0  0  0
   13.5438   -6.4640   18.7541 O   0  0  0  0  0  0  0  0  0  0  0  0
   12.8332   -5.7645   19.7356 C   0  0  0  0  0  0  0  0  0  0  0  0
   13.4877   -5.0138   20.7262 C   0  0  0  0  0  0  0  0  0  0  0  0
   12.7482   -4.3251   21.6922 C   0  0  0  0  0  0  0  0  0  0  0  0
   11.3521   -4.3796   21.6730 C   0  0  0  0  0  0  0  0  0  0  0  0
   10.5654   -3.6476   22.6994 C   0  0  0  0  0  0  0  0  0  0  0  0
   10.6956   -5.1235   20.6885 C   0  0  0  0  0  0  0  0  0  0  0  0
   11.4351   -5.8136   19.7231 C   0  0  0  0  0  0  0  0  0  0  0  0
   17.4978   -9.6220   13.2167 O   0  0  0  0  0  0  0  0  0  0  0  0
   18.5938   -9.9214   12.3620 C   0  0  0  0  0  0  0  0  0  0  0  0
   18.2660   -9.5138   10.9705 C   0  0  0  0  0  0  0  0  0  0  0  0
   17.0148   -9.8568   10.4187 C   0  0  0  0  0  0  0  0  0  0  0  0
   16.7202   -9.4371    9.1156 C   0  0  0  0  0  0  0  0  0  0  0  0
   15.6178   -9.7204    8.5779 O   0  0  0  0  0  0  0  0  0  0  0  0
   17.6556   -8.7154    8.4534 N   0  0  0  0  0  0  0  0  0  0  0  0
   17.6014   -8.2253    7.2573 O   0  0  0  0  0  0  0  0  0  0  0  0
   18.7282   -7.5866    7.0107 C   0  0  0  0  0  0  0  0  0  0  0  0
   19.0252   -6.8943    5.7293 C   0  0  0  0  0  0  0  0  0  0  0  0
   19.5930   -7.6508    8.1086 C   0  0  0  0  0  0  0  0  0  0  0  0
   18.8335   -8.3917    8.9936 C   0  0  0  0  0  0  0  0  0  0  0  0
   19.1634   -8.7754   10.2512 N   0  0  0  0  0  0  0  0  0  0  0  0
 11 12  1  0  0  0
 12 13  1  0  0  0
 13 14  1  0  0  0
 14 15  2  0  0  0
 15 16  1  0  0  0
 16 17  2  0  0  0
 17 18  1  0  0  0
 17 19  1  0  0  0
 19 20  2  0  0  0
 12  7  1  0  0  0
  7  8  2  0  0  0
  7  9  1  0  0  0
  9  1  1  0  0  0
  1  2  2  0  0  0
  2  3  1  0  0  0
  3 21  1  0  0  0
 21 22  1  0  0  0
 22 23  1  0  0  0
 23 24  2  0  0  0
 24 25  1  0  0  0
 25 26  2  0  0  0
 25 27  1  0  0  0
 27 28  1  0  0  0
 28 29  1  0  0  0
 29 30  1  0  0  0
 29 31  2  0  0  0
 31 32  1  0  0  0
 32 33  2  0  0  0
  3  4  2  0  0  0
  4  5  1  0  0  0
  5  6  2  0  0  0
 20 14  1  0  0  0
  6  1  1  0  0  0
 33 23  1  0  0  0
 32 27  1  0  0  0
  9 10  1  0  0  0
M  END
>  <minimizedAffinity>
-8.88406

>  <minimizedRMSD>
1.02976

$$$$
ChemDiv-G756-0999 MCULE-4395318305 MolPort-010-744-695 PubChem-50802638 ZINC000033268616 ZINC33268616


 33 36  0  0  0  0  0  0  0  0999 V2000
   17.4578  -10.5976   14.3684 C   0  0  0  0  0  0  0  0  0  0  0  0
   18.1740  -11.7301   14.7868 C   0  0  0  0  0  0  0  0  0  0  0  0
   18.2213  -12.0712   16.1402 C   0  0  0  0  0  0  0  0  0  0  0  0
   17.5548  -11.2837   17.0825 C   0  0  0  0  0  0  0  0  0  0  0  0
   16.8365  -10.1535   16.6800 C   0  0  0  0  0  0  0  0  0  0  0  0
   16.7934   -9.8158   15.3189 C   0  0  0  0  0  0  0  0  0  0  0  0
   16.1793   -9.3634   17.6797 N   0  0  0  0  0  0  0  0  0  0  0  0
   15.4567   -8.1429   17.4720 C   0  0  0  0  0  0  0  0  0  0  0  0
   15.2830   -7.6736   16.3158 O   0  0  0  0  0  0  0  0  0  0  0  0
   16.2294   -9.6937   18.6057 H   0  0  0  0  0  0  0  0  0  0  0  0
   14.9318   -7.3960   18.6494 C   0  0  0  0  0  0  0  0  0  0  0  0
   15.8732   -7.4424   19.7169 O   0  0  0  0  0  0  0  0  0  0  0  0
   15.5612   -7.0785   21.0342 C   0  0  0  0  0  0  0  0  0  0  0  0
   16.5611   -6.5400   21.8619 C   0  0  0  0  0  0  0  0  0  0  0  0
   17.9515   -6.3568   21.3602 C   0  0  0  0  0  0  0  0  0  0  0  0
   16.2608   -6.1782   23.1790 C   0  0  0  0  0  0  0  0  0  0  0  0
   14.9666   -6.3455   23.6780 C   0  0  0  0  0  0  0  0  0  0  0  0
   13.9668   -6.8764   22.8604 C   0  0  0  0  0  0  0  0  0  0  0  0
   14.2616   -7.2402   21.5446 C   0  0  0  0  0  0  0  0  0  0  0  0
   17.3896  -10.2300   13.0222 O   0  0  0  0  0  0  0  0  0  0  0  0
   18.4111   -9.4787   12.3799 C   0  0  0  0  0  0  0  0  0  0  0  0
   20.2980   -7.0236    5.7328 C   0  0  0  0  0  0  0  0  0  0  0  0
   19.3416   -7.7479    6.6095 C   0  0  0  0  0  0  0  0  0  0  0  0
   19.6069   -7.8813    7.9713 C   0  0  0  0  0  0  0  0  0  0  0  0
   18.7012   -8.5670    8.7833 C   0  0  0  0  0  0  0  0  0  0  0  0
   18.9628   -8.6992   10.1094 N   0  0  0  0  0  0  0  0  0  0  0  0
   18.1118   -9.3660   10.9280 C   0  0  0  0  0  0  0  0  0  0  0  0
   16.9415   -9.9170   10.4139 C   0  0  0  0  0  0  0  0  0  0  0  0
   16.6755   -9.7799    9.0525 C   0  0  0  0  0  0  0  0  0  0  0  0
   15.6172  -10.2825    8.5836 O   0  0  0  0  0  0  0  0  0  0  0  0
   17.5549   -9.1100    8.2446 N   0  0  0  0  0  0  0  0  0  0  0  0
   17.2948   -8.9794    6.9090 C   0  0  0  0  0  0  0  0  0  0  0  0
   18.1804   -8.2988    6.0713 C   0  0  0  0  0  0  0  0  0  0  0  0
 22 23  1  0  0  0
 23 24  2  0  0  0
 24 25  1  0  0  0
 25 26  2  0  0  0
 26 27  1  0  0  0
 27 21  1  0  0  0
 27 28  2  0  0  0
 21 20  1  0  0  0
 20  1  1  0  0  0
  1  2  2  0  0  0
  2  3  1  0  0  0
  3  4  2  0  0  0
  4  5  1  0  0  0
  5  7  1  0  0  0
  5  6  2  0  0  0
  7  8  1  0  0  0
  8  9  2  0  0  0
  8 11  1  0  0  0
 11 12  1  0  0  0
 12 13  1  0  0  0
 13 14  2  0  0  0
 14 15  1  0  0  0
 14 16  1  0  0  0
 16 17  2  0  0  0
 17 18  1  0  0  0
 18 19  2  0  0  0
 19 13  1  0  0  0
  6  1  1  0  0  0
 28 29  1  0  0  0
 29 30  2  0  0  0
 29 31  1  0  0  0
 31 32  1  0  0  0
 31 25  1  0  0  0
 32 33  2  0  0  0
 33 23  1  0  0  0
  7 10  1  0  0  0
M  END
>  <minimizedAffinity>
-8.87499

>  <minimizedRMSD>
1.75601

$$$$
ChemDiv-D439-4164 MCULE-5172939917 MolPort-007-706-788 PubChem-46268370 ZINC000021797177 ZINC21797177


 35 38  0  0  0  0  0  0  0  0999 V2000
   17.0261   -9.9150   14.1644 C   0  0  0  0  0  0  0  0  0  0  0  0
   16.5442   -9.2679   15.3075 C   0  0  0  0  0  0  0  0  0  0  0  0
   16.9258   -9.6749   16.5928 C   0  0  0  0  0  0  0  0  0  0  0  0
   17.8050  -10.7493   16.7339 C   0  0  0  0  0  0  0  0  0  0  0  0
   18.2911  -11.4148   15.6078 C   0  0  0  0  0  0  0  0  0  0  0  0
   17.9114  -11.0133   14.3229 C   0  0  0  0  0  0  0  0  0  0  0  0
   18.4503  -11.8017   13.1793 C   0  0  0  0  0  0  0  0  0  0  0  0
   16.4430   -9.0174   17.7724 N   0  0  0  0  0  0  0  0  0  0  0  0
   15.4459   -7.9883   17.8309 C   0  0  0  0  0  0  0  0  0  0  0  0
   14.8965   -7.5510   16.7858 O   0  0  0  0  0  0  0  0  0  0  0  0
   16.8361   -9.3013   18.6292 H   0  0  0  0  0  0  0  0  0  0  0  0
   15.0643   -7.4063   19.1497 C   0  0  0  0  0  0  0  0  0  0  0  0
   13.8794   -8.0210   19.6472 O   0  0  0  0  0  0  0  0  0  0  0  0
   12.5934   -7.5196   19.4172 C   0  0  0  0  0  0  0  0  0  0  0  0
   12.1644   -6.3009   19.9705 C   0  0  0  0  0  0  0  0  0  0  0  0
   10.8738   -5.8279   19.7170 C   0  0  0  0  0  0  0  0  0  0  0  0
   10.4660   -4.6515   20.2513 F   0  0  0  0  0  0  0  0  0  0  0  0
   10.0031   -6.5701   18.9136 C   0  0  0  0  0  0  0  0  0  0  0  0
   10.4238   -7.7842   18.3626 C   0  0  0  0  0  0  0  0  0  0  0  0
   11.7157   -8.2559   18.6139 C   0  0  0  0  0  0  0  0  0  0  0  0
   16.5864   -9.4186   12.9270 O   0  0  0  0  0  0  0  0  0  0  0  0
   16.2611  -10.2100   11.7929 C   0  0  0  0  0  0  0  0  0  0  0  0
   18.9701   -8.0061    7.5540 N   0  0  0  0  0  0  0  0  0  0  0  0
   19.9989   -7.4927    8.2741 C   0  0  0  0  0  0  0  0  0  0  0  0
   19.8591   -7.7651    9.6004 N   0  0  0  0  0  0  0  0  0  0  0  0
   18.7047   -8.4593    9.6237 C   0  0  0  0  0  0  0  0  0  0  0  0
   18.1134   -8.9713   10.7305 N   0  0  0  0  0  0  0  0  0  0  0  0
   16.9407   -9.6586   10.5913 C   0  0  0  0  0  0  0  0  0  0  0  0
   16.3544   -9.8250    9.3201 C   0  0  0  0  0  0  0  0  0  0  0  0
   17.0013   -9.2785    8.2051 C   0  0  0  0  0  0  0  0  0  0  0  0
   16.5101   -9.4085    7.0530 O   0  0  0  0  0  0  0  0  0  0  0  0
   18.1667   -8.6078    8.4118 N   0  0  0  0  0  0  0  0  0  0  0  0
   19.2153   -9.2088    5.4354 C   0  0  0  0  0  0  0  0  0  0  0  0
   18.7787   -7.9202    6.1078 C   0  0  0  0  0  0  0  0  0  0  0  0
   19.5544   -6.7483    5.5367 C   0  0  0  0  0  0  0  0  0  0  0  0
 33 34  1  0  0  0
 34 35  1  0  0  0
 34 23  1  0  0  0
 23 24  1  0  0  0
 24 25  2  0  0  0
 25 26  1  0  0  0
 26 27  2  0  0  0
 27 28  1  0  0  0
 28 22  1  0  0  0
 28 29  2  0  0  0
 22 21  1  0  0  0
 21  1  1  0  0  0
  1  2  2  0  0  0
  2  3  1  0  0  0
  3  8  1  0  0  0
  3  4  2  0  0  0
  8  9  1  0  0  0
  9 10  2  0  0  0
  9 12  1  0  0  0
 12 13  1  0  0  0
 13 14  1  0  0  0
 14 15  2  0  0  0
 15 16  1  0  0  0
 16 17  1  0  0  0
 16 18  2  0  0  0
 18 19  1  0  0  0
 19 20  2  0  0  0
 20 14  1  0  0  0
  4  5  1  0  0  0
  5  6  2  0  0  0
  6  7  1  0  0  0
  6  1  1  0  0  0
 29 30  1  0  0  0
 30 31  2  0  0  0
 30 32  1  0  0  0
 32 23  1  0  0  0
 32 26  1  0  0  0
  8 11  1  0  0  0
M  END
>  <minimizedAffinity>
-8.87124

>  <minimizedRMSD>
1.62483

$$$$
ChemDiv-G357-2021 CHEMBL1731153 MCULE-1359328681 MolPort-007-847-744 PubChem-16027479 ZINC000008607130


 34 37  0  0  0  0  0  0  0  0999 V2000
   17.8121  -10.4974   14.6596 C   0  0  0  0  0  0  0  0  0  0  0  0
   17.7651  -11.1576   15.8952 C   0  0  0  0  0  0  0  0  0  0  0  0
   17.2500  -10.5108   17.0222 C   0  0  0  0  0  0  0  0  0  0  0  0
   16.7763   -9.1978   16.9305 C   0  0  0  0  0  0  0  0  0  0  0  0
   16.8243   -8.5362   15.6943 C   0  0  0  0  0  0  0  0  0  0  0  0
   17.3387   -9.1819   14.5669 C   0  0  0  0  0  0  0  0  0  0  0  0
   16.2588   -8.5667   18.1097 N   0  0  0  0  0  0  0  0  0  0  0  0
   15.0899   -7.7414   18.1969 C   0  0  0  0  0  0  0  0  0  0  0  0
   14.3667   -7.5218   17.1897 O   0  0  0  0  0  0  0  0  0  0  0  0
   16.7576   -8.7155   18.9454 H   0  0  0  0  0  0  0  0  0  0  0  0
   14.7018   -7.1657   19.5108 C   0  0  0  0  0  0  0  0  0  0  0  0
   13.3113   -7.3611   19.7247 O   0  0  0  0  0  0  0  0  0  0  0  0
   12.4569   -6.4688   20.3927 C   0  0  0  0  0  0  0  0  0  0  0  0
   11.3912   -5.9442   19.6498 C   0  0  0  0  0  0  0  0  0  0  0  0
   10.4842   -5.0509   20.2232 C   0  0  0  0  0  0  0  0  0  0  0  0
   10.6343   -4.6656   21.5546 C   0  0  0  0  0  0  0  0  0  0  0  0
   11.6927   -5.1717   22.3108 C   0  0  0  0  0  0  0  0  0  0  0  0
   12.6083   -6.0678   21.7481 C   0  0  0  0  0  0  0  0  0  0  0  0
   13.7156   -6.5415   22.6260 C   0  0  0  0  0  0  0  0  0  0  0  0
   18.3562  -11.1710   13.4700 C   0  0  0  0  0  0  0  0  0  0  0  0
   18.7292  -12.3749   13.5402 O   0  0  0  0  0  0  0  0  0  0  0  0
   18.4586  -10.4711   12.2657 O   0  0  0  0  0  0  0  0  0  0  0  0
   17.3720   -9.7290   11.7325 C   0  0  0  0  0  0  0  0  0  0  0  0
   18.0568   -8.8445    7.6642 N   0  0  0  0  0  0  0  0  0  0  0  0
   18.4150   -8.4387    6.4169 C   0  0  0  0  0  0  0  0  0  0  0  0
   19.4916   -7.5544    6.4261 C   0  0  0  0  0  0  0  0  0  0  0  0
   20.0011   -7.2746    8.0152 S   0  0  0  0  0  0  0  0  0  0  0  0
   18.8245   -8.2982    8.6339 C   0  0  0  0  0  0  0  0  0  0  0  0
   18.6242   -8.5796    9.9445 N   0  0  0  0  0  0  0  0  0  0  0  0
   17.6265   -9.4384   10.2966 C   0  0  0  0  0  0  0  0  0  0  0  0
   16.8067  -10.0138    9.3136 C   0  0  0  0  0  0  0  0  0  0  0  0
   17.0445   -9.7011    7.9708 C   0  0  0  0  0  0  0  0  0  0  0  0
   16.3247  -10.2059    7.0679 O   0  0  0  0  0  0  0  0  0  0  0  0
   20.1046   -6.9444    5.2176 C   0  0  0  0  0  0  0  0  0  0  0  0
 24 25  1  0  0  0
 25 26  2  0  0  0
 26 27  1  0  0  0
 27 28  1  0  0  0
 28 29  2  0  0  0
 29 30  1  0  0  0
 30 23  1  0  0  0
 23 22  1  0  0  0
 22 20  1  0  0  0
 20 21  2  0  0  0
 20  1  1  0  0  0
  1  2  2  0  0  0
  2  3  1  0  0  0
  3  4  2  0  0  0
  4  5  1  0  0  0
  5  6  2  0  0  0
  4  7  1  0  0  0
  7  8  1  0  0  0
  8 11  1  0  0  0
 11 12  1  0  0  0
 12 13  1  0  0  0
 13 14  2  0  0  0
 14 15  1  0  0  0
 15 16  2  0  0  0
 16 17  1  0  0  0
 17 18  2  0  0  0
 18 19  1  0  0  0
  8  9  2  0  0  0
 30 31  2  0  0  0
 31 32  1  0  0  0
 32 33  2  0  0  0
 26 34  1  0  0  0
 28 24  1  0  0  0
  6  1  1  0  0  0
 18 13  1  0  0  0
 32 24  1  0  0  0
  7 10  1  0  0  0
M  END
>  <minimizedAffinity>
-8.86903

>  <minimizedRMSD>
1.24057

$$$$
ChemDiv-G357-3516 MCULE-4925029331 MolPort-007-848-023 PubChem-20953233 ZINC000021016996


 36 39  0  0  0  0  0  0  0  0999 V2000
   17.6018  -10.4300   14.5972 C   0  0  0  0  0  0  0  0  0  0  0  0
   16.9771   -9.1767   14.5654 C   0  0  0  0  0  0  0  0  0  0  0  0
   16.5087   -8.5918   15.7450 C   0  0  0  0  0  0  0  0  0  0  0  0
   16.6597   -9.2527   16.9730 C   0  0  0  0  0  0  0  0  0  0  0  0
   17.2832  -10.5041   17.0038 C   0  0  0  0  0  0  0  0  0  0  0  0
   17.7517  -11.0906   15.8247 C   0  0  0  0  0  0  0  0  0  0  0  0
   16.1892   -8.6865   18.2032 N   0  0  0  0  0  0  0  0  0  0  0  0
   15.1596   -7.7009   18.3565 C   0  0  0  0  0  0  0  0  0  0  0  0
   14.5670   -7.2126   17.3581 O   0  0  0  0  0  0  0  0  0  0  0  0
   16.6180   -9.0081   19.0289 H   0  0  0  0  0  0  0  0  0  0  0  0
   14.7651   -7.2671   19.7265 C   0  0  0  0  0  0  0  0  0  0  0  0
   13.4870   -6.6389   19.6976 O   0  0  0  0  0  0  0  0  0  0  0  0
   12.3620   -7.2118   19.0935 C   0  0  0  0  0  0  0  0  0  0  0  0
   11.6231   -6.4518   18.1800 C   0  0  0  0  0  0  0  0  0  0  0  0
   10.4937   -6.9947   17.5597 C   0  0  0  0  0  0  0  0  0  0  0  0
   10.0968   -8.3029   17.8509 C   0  0  0  0  0  0  0  0  0  0  0  0
   10.8281   -9.0681   18.7636 C   0  0  0  0  0  0  0  0  0  0  0  0
   10.4065  -10.4585   19.0750 C   0  0  0  0  0  0  0  0  0  0  0  0
   11.9558   -8.5246   19.3848 C   0  0  0  0  0  0  0  0  0  0  0  0
   18.0899  -11.0440   13.3520 C   0  0  0  0  0  0  0  0  0  0  0  0
   18.2804  -12.2905   13.2942 O   0  0  0  0  0  0  0  0  0  0  0  0
   18.3408  -10.2411   12.2370 O   0  0  0  0  0  0  0  0  0  0  0  0
   17.3411   -9.4053   11.6732 C   0  0  0  0  0  0  0  0  0  0  0  0
   17.9917   -8.9266    7.5347 N   0  0  0  0  0  0  0  0  0  0  0  0
   18.3072   -8.6649    6.2686 N   0  0  0  0  0  0  0  0  0  0  0  0
   19.3153   -7.7644    6.1716 C   0  0  0  0  0  0  0  0  0  0  0  0
   19.8692   -7.2591    7.6946 S   0  0  0  0  0  0  0  0  0  0  0  0
   18.7367   -8.2530    8.4366 C   0  0  0  0  0  0  0  0  0  0  0  0
   18.5465   -8.4000    9.7704 N   0  0  0  0  0  0  0  0  0  0  0  0
   17.5822   -9.2556   10.2138 C   0  0  0  0  0  0  0  0  0  0  0  0
   16.7861   -9.9640    9.2984 C   0  0  0  0  0  0  0  0  0  0  0  0
   17.0140   -9.7843    7.9295 C   0  0  0  0  0  0  0  0  0  0  0  0
   16.3201  -10.4079    7.0832 O   0  0  0  0  0  0  0  0  0  0  0  0
   19.8891   -7.3129    4.8719 C   0  0  0  0  0  0  0  0  0  0  0  0
   21.3832   -7.0622    4.9976 C   0  0  0  0  0  0  0  0  0  0  0  0
   21.7750   -5.7952    4.2602 C   0  0  0  0  0  0  0  0  0  0  0  0
 24 25  1  0  0  0
 25 26  2  0  0  0
 26 27  1  0  0  0
 27 28  1  0  0  0
 28 29  2  0  0  0
 29 30  1  0  0  0
 30 23  1  0  0  0
 23 22  1  0  0  0
 22 20  1  0  0  0
 20 21  2  0  0  0
 20  1  1  0  0  0
  1  2  2  0  0  0
  2  3  1  0  0  0
  3  4  2  0  0  0
  4  5  1  0  0  0
  5  6  2  0  0  0
  4  7  1  0  0  0
  7  8  1  0  0  0
  8 11  1  0  0  0
 11 12  1  0  0  0
 12 13  1  0  0  0
 13 14  2  0  0  0
 14 15  1  0  0  0
 15 16  2  0  0  0
 16 17  1  0  0  0
 17 18  1  0  0  0
 17 19  2  0  0  0
  8  9  2  0  0  0
 30 31  2  0  0  0
 31 32  1  0  0  0
 32 33  2  0  0  0
 26 34  1  0  0  0
 34 35  1  0  0  0
 35 36  1  0  0  0
 28 24  1  0  0  0
  6  1  1  0  0  0
 19 13  1  0  0  0
 32 24  1  0  0  0
  7 10  1  0  0  0
M  END
>  <minimizedAffinity>
-8.86253

>  <minimizedRMSD>
1.67567

$$$$
ChemDiv-D439-4118 MCULE-8552201753 MolPort-007-706-766 PubChem-46268348 ZINC000021797074 ZINC21797074


 33 36  0  0  0  0  0  0  0  0999 V2000
   17.1650   -9.8239   14.2862 C   0  0  0  0  0  0  0  0  0  0  0  0
   16.5640   -9.1644   15.3648 C   0  0  0  0  0  0  0  0  0  0  0  0
   16.7514   -9.5994   16.6832 C   0  0  0  0  0  0  0  0  0  0  0  0
   17.5545  -10.7140   16.9251 C   0  0  0  0  0  0  0  0  0  0  0  0
   18.1632  -11.3870   15.8655 C   0  0  0  0  0  0  0  0  0  0  0  0
   17.9797  -10.9575   14.5475 C   0  0  0  0  0  0  0  0  0  0  0  0
   18.6682  -11.7380   13.4814 C   0  0  0  0  0  0  0  0  0  0  0  0
   16.1418   -8.9331   17.7971 N   0  0  0  0  0  0  0  0  0  0  0  0
   15.1171   -7.9283   17.7448 C   0  0  0  0  0  0  0  0  0  0  0  0
   14.6548   -7.5398   16.6375 O   0  0  0  0  0  0  0  0  0  0  0  0
   16.4593   -9.1918   18.6924 H   0  0  0  0  0  0  0  0  0  0  0  0
   14.6013   -7.3458   18.9962 C   0  0  0  0  0  0  0  0  0  0  0  0
   13.3790   -6.6572   19.0083 C   0  0  0  0  0  0  0  0  0  0  0  0
   12.8905   -6.1051   20.1958 C   0  0  0  0  0  0  0  0  0  0  0  0
   11.2293   -5.1723   20.1990 Br  0  0  0  0  0  0  0  0  0  0  0  0
   13.6200   -6.2372   21.3803 C   0  0  0  0  0  0  0  0  0  0  0  0
   14.8383   -6.9214   21.3774 C   0  0  0  0  0  0  0  0  0  0  0  0
   15.3271   -7.4736   20.1897 C   0  0  0  0  0  0  0  0  0  0  0  0
   16.9084   -9.3015   13.0084 O   0  0  0  0  0  0  0  0  0  0  0  0
   16.3180  -10.0120   11.9293 C   0  0  0  0  0  0  0  0  0  0  0  0
   18.8570   -8.2713    7.3812 N   0  0  0  0  0  0  0  0  0  0  0  0
   19.7683   -7.4811    8.0016 C   0  0  0  0  0  0  0  0  0  0  0  0
   19.6146   -7.5163    9.3538 N   0  0  0  0  0  0  0  0  0  0  0  0
   18.5748   -8.3613    9.4958 C   0  0  0  0  0  0  0  0  0  0  0  0
   18.0171   -8.7366   10.6727 N   0  0  0  0  0  0  0  0  0  0  0  0
   16.9646   -9.6075   10.6534 C   0  0  0  0  0  0  0  0  0  0  0  0
   16.4593  -10.0933    9.4304 C   0  0  0  0  0  0  0  0  0  0  0  0
   17.0672   -9.6774    8.2395 C   0  0  0  0  0  0  0  0  0  0  0  0
   16.6465  -10.0921    7.1276 O   0  0  0  0  0  0  0  0  0  0  0  0
   18.1162   -8.8162    8.3283 N   0  0  0  0  0  0  0  0  0  0  0  0
   20.0092   -8.1668    5.2237 C   0  0  0  0  0  0  0  0  0  0  0  0
   18.7119   -8.4855    5.9431 C   0  0  0  0  0  0  0  0  0  0  0  0
   17.5869   -7.6317    5.3884 C   0  0  0  0  0  0  0  0  0  0  0  0
 31 32  1  0  0  0
 32 33  1  0  0  0
 32 21  1  0  0  0
 21 22  1  0  0  0
 22 23  2  0  0  0
 23 24  1  0  0  0
 24 25  2  0  0  0
 25 26  1  0  0  0
 26 20  1  0  0  0
 26 27  2  0  0  0
 20 19  1  0  0  0
 19  1  1  0  0  0
  1  2  2  0  0  0
  2  3  1  0  0  0
  3  8  1  0  0  0
  3  4  2  0  0  0
  8  9  1  0  0  0
  9 10  2  0  0  0
  9 12  1  0  0  0
 12 13  2  0  0  0
 13 14  1  0  0  0
 14 15  1  0  0  0
 14 16  2  0  0  0
 16 17  1  0  0  0
 17 18  2  0  0  0
 18 12  1  0  0  0
  4  5  1  0  0  0
  5  6  2  0  0  0
  6  7  1  0  0  0
  6  1  1  0  0  0
 27 28  1  0  0  0
 28 29  2  0  0  0
 28 30  1  0  0  0
 30 21  1  0  0  0
 30 24  1  0  0  0
  8 11  1  0  0  0
M  END
>  <minimizedAffinity>
-8.85879

>  <minimizedRMSD>
1.37525

$$$$
ChemDiv-G756-1038 MCULE-6195436918 MolPort-007-879-550 PubChem-46356359 ZINC000021100153 ZINC21100153


 32 35  0  0  0  0  0  0  0  0999 V2000
   18.3018  -10.6902   13.5683 C   0  0  0  0  0  0  0  0  0  0  0  0
   18.4791  -12.0364   13.9017 C   0  0  0  0  0  0  0  0  0  0  0  0
   18.2956  -12.4660   15.2187 C   0  0  0  0  0  0  0  0  0  0  0  0
   17.9330  -11.5496   16.2095 C   0  0  0  0  0  0  0  0  0  0  0  0
   17.7502  -10.1996   15.8929 C   0  0  0  0  0  0  0  0  0  0  0  0
   17.9369   -9.7752   14.5688 C   0  0  0  0  0  0  0  0  0  0  0  0
   17.3784   -9.2896   16.9371 N   0  0  0  0  0  0  0  0  0  0  0  0
   16.0514   -8.8698   17.2794 C   0  0  0  0  0  0  0  0  0  0  0  0
   15.0544   -9.3132   16.6488 O   0  0  0  0  0  0  0  0  0  0  0  0
   15.8808   -7.9381   18.3550 N   0  0  0  0  0  0  0  0  0  0  0  0
   18.1119   -8.9136   17.4756 H   0  0  0  0  0  0  0  0  0  0  0  0
   16.7008   -7.6288   18.8035 H   0  0  0  0  0  0  0  0  0  0  0  0
   14.6420   -7.4087   18.8474 C   0  0  0  0  0  0  0  0  0  0  0  0
   13.5875   -7.0619   17.9885 C   0  0  0  0  0  0  0  0  0  0  0  0
   12.3935   -6.5505   18.5053 C   0  0  0  0  0  0  0  0  0  0  0  0
   12.2452   -6.3828   19.8847 C   0  0  0  0  0  0  0  0  0  0  0  0
   13.2908   -6.7259   20.7460 C   0  0  0  0  0  0  0  0  0  0  0  0
   14.4845   -7.2368   20.2275 C   0  0  0  0  0  0  0  0  0  0  0  0
   18.4924  -10.2892   12.2436 O   0  0  0  0  0  0  0  0  0  0  0  0
   18.1949   -8.9753   11.7903 C   0  0  0  0  0  0  0  0  0  0  0  0
   20.7401   -6.7223    5.2916 C   0  0  0  0  0  0  0  0  0  0  0  0
   19.7638   -7.5154    6.0833 C   0  0  0  0  0  0  0  0  0  0  0  0
   19.8292   -7.5151    7.4754 C   0  0  0  0  0  0  0  0  0  0  0  0
   18.9045   -8.2641    8.2068 C   0  0  0  0  0  0  0  0  0  0  0  0
   18.9703   -8.2631    9.5632 N   0  0  0  0  0  0  0  0  0  0  0  0
   18.0851   -8.9717   10.3075 C   0  0  0  0  0  0  0  0  0  0  0  0
   17.1002   -9.7296    9.6812 C   0  0  0  0  0  0  0  0  0  0  0  0
   17.0368   -9.7307    8.2888 C   0  0  0  0  0  0  0  0  0  0  0  0
   16.1428  -10.4150    7.7192 O   0  0  0  0  0  0  0  0  0  0  0  0
   17.9361   -8.9997    7.5593 N   0  0  0  0  0  0  0  0  0  0  0  0
   17.8739   -9.0024    6.1939 C   0  0  0  0  0  0  0  0  0  0  0  0
   18.7834   -8.2633    5.4351 C   0  0  0  0  0  0  0  0  0  0  0  0
 21 22  1  0  0  0
 22 23  2  0  0  0
 23 24  1  0  0  0
 24 25  2  0  0  0
 25 26  1  0  0  0
 26 20  1  0  0  0
 26 27  2  0  0  0
 20 19  1  0  0  0
 19  1  1  0  0  0
  1  2  2  0  0  0
  2  3  1  0  0  0
  3  4  2  0  0  0
  4  5  1  0  0  0
  5  7  1  0  0  0
  5  6  2  0  0  0
  7  8  1  0  0  0
  8  9  2  0  0  0
  8 10  1  0  0  0
 10 13  1  0  0  0
 13 14  2  0  0  0
 14 15  1  0  0  0
 15 16  2  0  0  0
 16 17  1  0  0  0
 17 18  2  0  0  0
 18 13  1  0  0  0
  6  1  1  0  0  0
 27 28  1  0  0  0
 28 29  2  0  0  0
 28 30  1  0  0  0
 30 31  1  0  0  0
 30 24  1  0  0  0
 31 32  2  0  0  0
 32 22  1  0  0  0
  7 11  1  0  0  0
 10 12  1  0  0  0
M  END
>  <minimizedAffinity>
-8.85635

>  <minimizedRMSD>
1.23105

$$$$
ChemDiv-C060-0019 MCULE-1853232442 MolPort-007-580-726 PubChem-22333912 ZINC000009775702 ZINC09775702


 37 40  0  0  0  0  0  0  0  0999 V2000
   16.2748   -8.8453   16.7463 C   0  0  0  0  0  0  0  0  0  0  0  0
   17.2355   -8.4807   15.6272 C   0  0  0  0  0  0  0  0  0  0  0  0
   16.3764   -9.5278   13.4857 C   0  0  0  0  0  0  0  0  0  0  0  0
   15.5770   -8.5735   13.2908 O   0  0  0  0  0  0  0  0  0  0  0  0
   17.2555   -9.5245   14.6119 N   0  0  0  0  0  0  0  0  0  0  0  0
   17.9031  -10.2601   14.7056 H   0  0  0  0  0  0  0  0  0  0  0  0
   16.4457  -10.6472   12.5028 C   0  0  0  0  0  0  0  0  0  0  0  0
   19.5625   -7.2313    6.6127 C   0  0  0  0  0  0  0  0  0  0  0  0
   18.6540   -7.9717    7.5317 C   0  0  0  0  0  0  0  0  0  0  0  0
   18.9167   -8.2811    8.8687 C   0  0  0  0  0  0  0  0  0  0  0  0
   20.1787   -7.8918    9.5656 C   0  0  0  0  0  0  0  0  0  0  0  0
   17.8574   -8.9856    9.4688 C   0  0  0  0  0  0  0  0  0  0  0  0
   16.8067   -9.2100    8.6020 C   0  0  0  0  0  0  0  0  0  0  0  0
   17.1319   -8.5613    7.0909 S   0  0  0  0  0  0  0  0  0  0  0  0
   15.6863   -9.8687    8.9756 N   0  0  0  0  0  0  0  0  0  0  0  0
   15.5890  -10.3263   10.2542 C   0  0  0  0  0  0  0  0  0  0  0  0
   16.6035  -10.1243   11.1504 N   0  0  0  0  0  0  0  0  0  0  0  0
   17.7451   -9.4582   10.7822 C   0  0  0  0  0  0  0  0  0  0  0  0
   18.6750   -9.2725   11.6150 O   0  0  0  0  0  0  0  0  0  0  0  0
   15.0890   -7.8980   16.7638 C   0  0  0  0  0  0  0  0  0  0  0  0
   14.7861   -7.4767   18.1587 C   0  0  0  0  0  0  0  0  0  0  0  0
   13.7579   -6.7841   18.3814 O   0  0  0  0  0  0  0  0  0  0  0  0
   15.6751   -7.8512   19.2196 N   0  0  0  0  0  0  0  0  0  0  0  0
   16.4572   -8.3942   18.9691 H   0  0  0  0  0  0  0  0  0  0  0  0
   15.5430   -7.5165   20.6081 C   0  0  0  0  0  0  0  0  0  0  0  0
   16.4795   -6.6526   21.1834 C   0  0  0  0  0  0  0  0  0  0  0  0
   16.3795   -6.2976   22.5318 C   0  0  0  0  0  0  0  0  0  0  0  0
   15.3410   -6.7972   23.3255 C   0  0  0  0  0  0  0  0  0  0  0  0
   14.4050   -7.6692   22.7480 C   0  0  0  0  0  0  0  0  0  0  0  0
   14.5038   -8.0250   21.4004 C   0  0  0  0  0  0  0  0  0  0  0  0
   15.2948   -6.4103   24.6757 O   0  0  0  0  0  0  0  0  0  0  0  0
   14.2434   -5.7645   25.3483 C   0  0  0  0  0  0  0  0  0  0  0  0
   13.1354   -5.2123   24.6840 C   0  0  0  0  0  0  0  0  0  0  0  0
   12.1239   -4.5686   25.4035 C   0  0  0  0  0  0  0  0  0  0  0  0
   12.2114   -4.4696   26.7945 C   0  0  0  0  0  0  0  0  0  0  0  0
   13.3106   -5.0124   27.4639 C   0  0  0  0  0  0  0  0  0  0  0  0
   14.3213   -5.6550   26.7420 C   0  0  0  0  0  0  0  0  0  0  0  0
  8  9  1  0  0  0
  9 10  2  0  0  0
 10 11  1  0  0  0
 10 12  1  0  0  0
 12 13  2  0  0  0
 13 14  1  0  0  0
 13 15  1  0  0  0
 14  9  1  0  0  0
 15 16  2  0  0  0
 16 17  1  0  0  0
 17  7  1  0  0  0
 17 18  1  0  0  0
  7  3  1  0  0  0
  3  4  2  0  0  0
  3  5  1  0  0  0
  5  2  1  0  0  0
  2  1  1  0  0  0
  1 20  1  0  0  0
 20 21  1  0  0  0
 21 22  2  0  0  0
 21 23  1  0  0  0
 23 25  1  0  0  0
 25 26  2  0  0  0
 26 27  1  0  0  0
 27 28  2  0  0  0
 28 31  1  0  0  0
 28 29  1  0  0  0
 31 32  1  0  0  0
 32 33  2  0  0  0
 33 34  1  0  0  0
 34 35  2  0  0  0
 35 36  1  0  0  0
 36 37  2  0  0  0
 37 32  1  0  0  0
 29 30  2  0  0  0
 30 25  1  0  0  0
 18 19  2  0  0  0
 18 12  1  0  0  0
  5  6  1  0  0  0
 23 24  1  0  0  0
M  END
>  <minimizedAffinity>
-8.85608

>  <minimizedRMSD>
1.99779

$$$$
ChemDiv-G357-0032 CHEMBL2357476 MCULE-6969211582 MolPort-007-847-016 PubChem-16027366 ZINC000008606000


 35 38  0  0  0  0  0  0  0  0999 V2000
   17.4474  -10.2187   14.7540 C   0  0  0  0  0  0  0  0  0  0  0  0
   17.5355  -10.8202   16.0171 C   0  0  0  0  0  0  0  0  0  0  0  0
   17.0284  -10.1698   17.1456 C   0  0  0  0  0  0  0  0  0  0  0  0
   16.4283   -8.9120   17.0283 C   0  0  0  0  0  0  0  0  0  0  0  0
   16.3396   -8.3098   15.7643 C   0  0  0  0  0  0  0  0  0  0  0  0
   16.8463   -8.9589   14.6352 C   0  0  0  0  0  0  0  0  0  0  0  0
   15.9131   -8.2810   18.2082 N   0  0  0  0  0  0  0  0  0  0  0  0
   14.6814   -7.5572   18.3250 C   0  0  0  0  0  0  0  0  0  0  0  0
   13.9373   -7.3652   17.3269 O   0  0  0  0  0  0  0  0  0  0  0  0
   16.4621   -8.3522   19.0224 H   0  0  0  0  0  0  0  0  0  0  0  0
   14.2915   -6.9920   19.6431 C   0  0  0  0  0  0  0  0  0  0  0  0
   15.3538   -7.1684   20.5713 O   0  0  0  0  0  0  0  0  0  0  0  0
   15.2419   -6.8207   21.9199 C   0  0  0  0  0  0  0  0  0  0  0  0
   14.0752   -6.2345   22.4345 C   0  0  0  0  0  0  0  0  0  0  0  0
   13.9935   -5.9004   23.7884 C   0  0  0  0  0  0  0  0  0  0  0  0
   15.0732   -6.1461   24.6414 C   0  0  0  0  0  0  0  0  0  0  0  0
   16.2457   -6.7334   24.1308 C   0  0  0  0  0  0  0  0  0  0  0  0
   17.4225   -7.0111   25.0030 C   0  0  0  0  0  0  0  0  0  0  0  0
   16.3208   -7.0661   22.7745 C   0  0  0  0  0  0  0  0  0  0  0  0
   14.9482   -5.7775   26.0810 C   0  0  0  0  0  0  0  0  0  0  0  0
   17.9765  -10.8995   13.5613 C   0  0  0  0  0  0  0  0  0  0  0  0
   18.2844  -12.1224   13.6157 O   0  0  0  0  0  0  0  0  0  0  0  0
   18.1328  -10.1866   12.3705 O   0  0  0  0  0  0  0  0  0  0  0  0
   17.0282   -9.6137   11.6863 C   0  0  0  0  0  0  0  0  0  0  0  0
   18.0361   -8.8600    7.6622 N   0  0  0  0  0  0  0  0  0  0  0  0
   18.4597   -8.5144    6.4490 N   0  0  0  0  0  0  0  0  0  0  0  0
   19.4877   -7.6339    6.5026 C   0  0  0  0  0  0  0  0  0  0  0  0
   19.9149   -7.2444    8.0975 S   0  0  0  0  0  0  0  0  0  0  0  0
   18.7118   -8.2670    8.6693 C   0  0  0  0  0  0  0  0  0  0  0  0
   18.4069   -8.5036    9.9684 N   0  0  0  0  0  0  0  0  0  0  0  0
   17.3967   -9.3689   10.2671 C   0  0  0  0  0  0  0  0  0  0  0  0
   16.6704   -9.9937    9.2398 C   0  0  0  0  0  0  0  0  0  0  0  0
   17.0153   -9.7222    7.9112 C   0  0  0  0  0  0  0  0  0  0  0  0
   16.3847  -10.2679    6.9673 O   0  0  0  0  0  0  0  0  0  0  0  0
   20.1528   -7.0815    5.2944 C   0  0  0  0  0  0  0  0  0  0  0  0
 25 26  1  0  0  0
 26 27  2  0  0  0
 27 28  1  0  0  0
 28 29  1  0  0  0
 29 30  2  0  0  0
 30 31  1  0  0  0
 31 24  1  0  0  0
 24 23  1  0  0  0
 23 21  1  0  0  0
 21 22  2  0  0  0
 21  1  1  0  0  0
  1  2  2  0  0  0
  2  3  1  0  0  0
  3  4  2  0  0  0
  4  5  1  0  0  0
  5  6  2  0  0  0
  4  7  1  0  0  0
  7  8  1  0  0  0
  8 11  1  0  0  0
 11 12  1  0  0  0
 12 13  1  0  0  0
 13 14  2  0  0  0
 14 15  1  0  0  0
 15 16  2  0  0  0
 16 17  1  0  0  0
 17 18  1  0  0  0
 17 19  2  0  0  0
 16 20  1  0  0  0
  8  9  2  0  0  0
 31 32  2  0  0  0
 32 33  1  0  0  0
 33 34  2  0  0  0
 27 35  1  0  0  0
 29 25  1  0  0  0
  6  1  1  0  0  0
 19 13  1  0  0  0
 33 25  1  0  0  0
  7 10  1  0  0  0
M  END
>  <minimizedAffinity>
-8.85140

>  <minimizedRMSD>
1.13771

$$$$
ChemDiv-G756-2865 MCULE-3217820867 MolPort-007-880-113 PubChem-46356824 ZINC000033068341 ZINC33068341


 34 37  0  0  0  0  0  0  0  0999 V2000
   16.9927  -10.3669   16.5883 C   0  0  0  0  0  0  0  0  0  0  0  0
   16.9157  -10.1142   15.2102 C   0  0  0  0  0  0  0  0  0  0  0  0
   17.5840  -10.9341   14.2956 C   0  0  0  0  0  0  0  0  0  0  0  0
   18.3398  -12.0189   14.7673 C   0  0  0  0  0  0  0  0  0  0  0  0
   18.4219  -12.2752   16.1381 C   0  0  0  0  0  0  0  0  0  0  0  0
   17.7501  -11.4506   17.0444 C   0  0  0  0  0  0  0  0  0  0  0  0
   15.6511   -8.3009   17.2960 C   0  0  0  0  0  0  0  0  0  0  0  0
   15.5622   -7.8313   16.1307 O   0  0  0  0  0  0  0  0  0  0  0  0
   16.3215   -9.5419   17.5497 N   0  0  0  0  0  0  0  0  0  0  0  0
   16.3212   -9.8610   18.4810 H   0  0  0  0  0  0  0  0  0  0  0  0
   15.0672   -7.5425   18.4383 C   0  0  0  0  0  0  0  0  0  0  0  0
   16.0103   -7.4450   19.5013 O   0  0  0  0  0  0  0  0  0  0  0  0
   12.6992   -6.0794   22.9056 C   0  0  0  0  0  0  0  0  0  0  0  0
   14.1061   -6.1951   22.4421 C   0  0  0  0  0  0  0  0  0  0  0  0
   14.3860   -6.7593   21.1955 C   0  0  0  0  0  0  0  0  0  0  0  0
   15.7128   -6.8784   20.7486 C   0  0  0  0  0  0  0  0  0  0  0  0
   16.7567   -6.4174   21.5691 C   0  0  0  0  0  0  0  0  0  0  0  0
   18.1765   -6.5251   21.1315 C   0  0  0  0  0  0  0  0  0  0  0  0
   16.4714   -5.8525   22.8164 C   0  0  0  0  0  0  0  0  0  0  0  0
   15.1489   -5.7416   23.2530 C   0  0  0  0  0  0  0  0  0  0  0  0
   17.4812  -10.6494   12.9317 O   0  0  0  0  0  0  0  0  0  0  0  0
   17.1123   -9.3673   12.4408 C   0  0  0  0  0  0  0  0  0  0  0  0
   17.3085   -9.3228   10.9679 C   0  0  0  0  0  0  0  0  0  0  0  0
   16.5401  -10.1344   10.1387 C   0  0  0  0  0  0  0  0  0  0  0  0
   16.7240  -10.0515    8.7593 C   0  0  0  0  0  0  0  0  0  0  0  0
   16.0322  -10.7902    8.0060 O   0  0  0  0  0  0  0  0  0  0  0  0
   17.6412   -9.1776    8.2394 N   0  0  0  0  0  0  0  0  0  0  0  0
   17.8184   -9.0953    6.8869 C   0  0  0  0  0  0  0  0  0  0  0  0
   18.7458   -8.2063    6.3416 C   0  0  0  0  0  0  0  0  0  0  0  0
   18.9620   -8.1114    4.6078 Cl  0  0  0  0  0  0  0  0  0  0  0  0
   19.4977   -7.3955    7.1890 C   0  0  0  0  0  0  0  0  0  0  0  0
   19.3168   -7.4801    8.5681 C   0  0  0  0  0  0  0  0  0  0  0  0
   18.3810   -8.3798    9.0845 C   0  0  0  0  0  0  0  0  0  0  0  0
   18.2049   -8.4589   10.4288 N   0  0  0  0  0  0  0  0  0  0  0  0
 13 14  1  0  0  0
 14 15  2  0  0  0
 15 16  1  0  0  0
 16 12  1  0  0  0
 16 17  2  0  0  0
 12 11  1  0  0  0
 11  7  1  0  0  0
  7  8  2  0  0  0
  7  9  1  0  0  0
  9  1  1  0  0  0
  1  2  2  0  0  0
  2  3  1  0  0  0
  3 21  1  0  0  0
  3  4  2  0  0  0
 21 22  1  0  0  0
 22 23  1  0  0  0
 23 24  2  0  0  0
 24 25  1  0  0  0
 25 26  2  0  0  0
 25 27  1  0  0  0
 27 28  1  0  0  0
 28 29  2  0  0  0
 29 30  1  0  0  0
 29 31  1  0  0  0
 31 32  2  0  0  0
 32 33  1  0  0  0
 33 34  2  0  0  0
 33 27  1  0  0  0
 34 23  1  0  0  0
  4  5  1  0  0  0
  5  6  2  0  0  0
  6  1  1  0  0  0
 17 18  1  0  0  0
 17 19  1  0  0  0
 19 20  2  0  0  0
 20 14  1  0  0  0
  9 10  1  0  0  0
M  END
>  <minimizedAffinity>
-8.84898

>  <minimizedRMSD>
2.32598

$$$$
ChemDiv-G756-2839 MCULE-3452197441 MolPort-007-880-106 PubChem-46356817 ZINC000033068334 ZINC33068334


 34 37  0  0  0  0  0  0  0  0999 V2000
   17.8846  -10.7625   13.8398 C   0  0  0  0  0  0  0  0  0  0  0  0
   18.3775  -11.9802   14.3356 C   0  0  0  0  0  0  0  0  0  0  0  0
   18.2676  -12.2817   15.6952 C   0  0  0  0  0  0  0  0  0  0  0  0
   17.6656  -11.3697   16.5662 C   0  0  0  0  0  0  0  0  0  0  0  0
   17.1707  -10.1528   16.0862 C   0  0  0  0  0  0  0  0  0  0  0  0
   17.2848   -9.8562   14.7193 C   0  0  0  0  0  0  0  0  0  0  0  0
   16.5634   -9.2415   17.0119 N   0  0  0  0  0  0  0  0  0  0  0  0
   15.5530   -8.2677   16.7179 C   0  0  0  0  0  0  0  0  0  0  0  0
   15.0758   -8.1503   15.5585 O   0  0  0  0  0  0  0  0  0  0  0  0
   16.8719   -9.2895   17.9456 H   0  0  0  0  0  0  0  0  0  0  0  0
   15.0510   -7.3818   17.8061 C   0  0  0  0  0  0  0  0  0  0  0  0
   15.0573   -8.0761   19.0486 O   0  0  0  0  0  0  0  0  0  0  0  0
   15.1934   -7.4731   20.3094 C   0  0  0  0  0  0  0  0  0  0  0  0
   14.1202   -7.2798   21.2171 C   0  0  0  0  0  0  0  0  0  0  0  0
   12.7358   -7.7605   20.9489 C   0  0  0  0  0  0  0  0  0  0  0  0
   14.3589   -6.6636   22.4505 C   0  0  0  0  0  0  0  0  0  0  0  0
   15.6434   -6.2418   22.7973 C   0  0  0  0  0  0  0  0  0  0  0  0
   16.7038   -6.4424   21.9136 C   0  0  0  0  0  0  0  0  0  0  0  0
   18.0736   -6.0011   22.2833 C   0  0  0  0  0  0  0  0  0  0  0  0
   16.4778   -7.0576   20.6810 C   0  0  0  0  0  0  0  0  0  0  0  0
   17.9785  -10.4297   12.4861 O   0  0  0  0  0  0  0  0  0  0  0  0
   17.5796   -9.1639   11.9771 C   0  0  0  0  0  0  0  0  0  0  0  0
   19.0282   -8.1646    4.2913 C   0  0  0  0  0  0  0  0  0  0  0  0
   18.9147   -8.1969    5.7724 C   0  0  0  0  0  0  0  0  0  0  0  0
   18.0109   -9.0627    6.3898 C   0  0  0  0  0  0  0  0  0  0  0  0
   17.8978   -9.1009    7.7511 N   0  0  0  0  0  0  0  0  0  0  0  0
   17.0043   -9.9538    8.3420 C   0  0  0  0  0  0  0  0  0  0  0  0
   16.2725  -10.7107    7.6467 O   0  0  0  0  0  0  0  0  0  0  0  0
   16.8894   -9.9945    9.7305 C   0  0  0  0  0  0  0  0  0  0  0  0
   17.7004   -9.1617   10.4955 C   0  0  0  0  0  0  0  0  0  0  0  0
   18.5714   -8.3183    9.8869 N   0  0  0  0  0  0  0  0  0  0  0  0
   18.6802   -8.2804    8.5338 C   0  0  0  0  0  0  0  0  0  0  0  0
   19.5918   -7.4012    7.9447 C   0  0  0  0  0  0  0  0  0  0  0  0
   19.7070   -7.3614    6.5563 C   0  0  0  0  0  0  0  0  0  0  0  0
 23 24  1  0  0  0
 24 25  2  0  0  0
 25 26  1  0  0  0
 26 27  1  0  0  0
 27 28  2  0  0  0
 27 29  1  0  0  0
 29 30  2  0  0  0
 30 22  1  0  0  0
 30 31  1  0  0  0
 22 21  1  0  0  0
 21  1  1  0  0  0
  1  2  2  0  0  0
  2  3  1  0  0  0
  3  4  2  0  0  0
  4  5  1  0  0  0
  5  7  1  0  0  0
  5  6  2  0  0  0
  7  8  1  0  0  0
  8  9  2  0  0  0
  8 11  1  0  0  0
 11 12  1  0  0  0
 12 13  1  0  0  0
 13 14  2  0  0  0
 14 15  1  0  0  0
 14 16  1  0  0  0
 16 17  2  0  0  0
 17 18  1  0  0  0
 18 19  1  0  0  0
 18 20  2  0  0  0
 20 13  1  0  0  0
  6  1  1  0  0  0
 31 32  2  0  0  0
 32 33  1  0  0  0
 32 26  1  0  0  0
 33 34  2  0  0  0
 34 24  1  0  0  0
  7 10  1  0  0  0
M  END
>  <minimizedAffinity>
-8.84880

>  <minimizedRMSD>
2.48325

$$$$
ChemDiv-G756-1071 MCULE-5196876747 MolPort-007-879-576 PubChem-46356383 ZINC000021100267 ZINC21100267


 36 39  0  0  0  0  0  0  0  0999 V2000
   17.7166  -10.1214   15.9360 C   0  0  0  0  0  0  0  0  0  0  0  0
   17.7712   -9.7679   14.5799 C   0  0  0  0  0  0  0  0  0  0  0  0
   18.0608  -10.7309   13.5998 C   0  0  0  0  0  0  0  0  0  0  0  0
   18.2933  -12.0542   13.9861 C   0  0  0  0  0  0  0  0  0  0  0  0
   18.2374  -12.4141   15.3350 C   0  0  0  0  0  0  0  0  0  0  0  0
   17.9497  -11.4500   16.3053 C   0  0  0  0  0  0  0  0  0  0  0  0
   16.0329   -7.8594   18.5274 N   0  0  0  0  0  0  0  0  0  0  0  0
   16.1245   -8.8207   17.4684 C   0  0  0  0  0  0  0  0  0  0  0  0
   15.0862   -9.3543   16.9927 O   0  0  0  0  0  0  0  0  0  0  0  0
   17.4203   -9.1615   16.9597 N   0  0  0  0  0  0  0  0  0  0  0  0
   16.8823   -7.4937   18.8650 H   0  0  0  0  0  0  0  0  0  0  0  0
   18.1874   -8.6870   17.3542 H   0  0  0  0  0  0  0  0  0  0  0  0
   12.4783   -6.7504   19.0681 C   0  0  0  0  0  0  0  0  0  0  0  0
   12.5300   -6.4177   20.4251 C   0  0  0  0  0  0  0  0  0  0  0  0
   13.7244   -6.5578   21.1505 C   0  0  0  0  0  0  0  0  0  0  0  0
   14.8683   -7.0355   20.5040 C   0  0  0  0  0  0  0  0  0  0  0  0
   14.8338   -7.3740   19.1473 C   0  0  0  0  0  0  0  0  0  0  0  0
   13.6348   -7.2283   18.4335 C   0  0  0  0  0  0  0  0  0  0  0  0
   10.6084   -7.6817   17.7423 C   0  0  0  0  0  0  0  0  0  0  0  0
   11.2721   -6.5976   18.3776 O   0  0  0  0  0  0  0  0  0  0  0  0
   13.8012   -6.2325   22.5077 O   0  0  0  0  0  0  0  0  0  0  0  0
   12.7354   -5.6050   23.2080 C   0  0  0  0  0  0  0  0  0  0  0  0
   18.1206  -10.4004   12.2435 O   0  0  0  0  0  0  0  0  0  0  0  0
   18.3243   -9.0697   11.7864 C   0  0  0  0  0  0  0  0  0  0  0  0
   18.1735   -9.0222   10.3081 C   0  0  0  0  0  0  0  0  0  0  0  0
   17.1517   -9.7363    9.6899 C   0  0  0  0  0  0  0  0  0  0  0  0
   17.0499   -9.6974    8.3002 C   0  0  0  0  0  0  0  0  0  0  0  0
   16.1228  -10.3430    7.7381 O   0  0  0  0  0  0  0  0  0  0  0  0
   17.9479   -8.9702    7.5652 N   0  0  0  0  0  0  0  0  0  0  0  0
   17.8467   -8.9325    6.2026 C   0  0  0  0  0  0  0  0  0  0  0  0
   18.7549   -8.1976    5.4388 C   0  0  0  0  0  0  0  0  0  0  0  0
   19.7757   -7.4972    6.0785 C   0  0  0  0  0  0  0  0  0  0  0  0
   20.7498   -6.7079    5.2802 C   0  0  0  0  0  0  0  0  0  0  0  0
   19.8796   -7.5365    7.4677 C   0  0  0  0  0  0  0  0  0  0  0  0
   18.9547   -8.2800    8.2045 C   0  0  0  0  0  0  0  0  0  0  0  0
   19.0566   -8.3158    9.5584 N   0  0  0  0  0  0  0  0  0  0  0  0
 19 20  1  0  0  0
 20 13  1  0  0  0
 13 14  2  0  0  0
 14 15  1  0  0  0
 15 21  1  0  0  0
 15 16  2  0  0  0
 21 22  1  0  0  0
 16 17  1  0  0  0
 17  7  1  0  0  0
 17 18  2  0  0  0
  7  8  1  0  0  0
  8  9  2  0  0  0
  8 10  1  0  0  0
 10  1  1  0  0  0
  1  2  2  0  0  0
  2  3  1  0  0  0
  3 23  1  0  0  0
  3  4  2  0  0  0
 23 24  1  0  0  0
 24 25  1  0  0  0
 25 26  2  0  0  0
 26 27  1  0  0  0
 27 28  2  0  0  0
 27 29  1  0  0  0
 29 30  1  0  0  0
 30 31  2  0  0  0
 31 32  1  0  0  0
 32 33  1  0  0  0
 32 34  2  0  0  0
 34 35  1  0  0  0
 35 36  2  0  0  0
 35 29  1  0  0  0
 36 25  1  0  0  0
  4  5  1  0  0  0
  5  6  2  0  0  0
  6  1  1  0  0  0
 18 13  1  0  0  0
  7 11  1  0  0  0
 10 12  1  0  0  0
M  END
>  <minimizedAffinity>
-8.84623

>  <minimizedRMSD>
1.87742

$$$$
ChemDiv-D439-4135 MCULE-4680554708 MolPort-007-706-768 PubChem-46268350 ZINC000021797084 ZINC21797084


 33 36  0  0  0  0  0  0  0  0999 V2000
   17.0680   -9.7574   14.2547 C   0  0  0  0  0  0  0  0  0  0  0  0
   16.4845   -9.1155   15.3531 C   0  0  0  0  0  0  0  0  0  0  0  0
   16.7330   -9.5407   16.6646 C   0  0  0  0  0  0  0  0  0  0  0  0
   17.5805  -10.6279   16.8790 C   0  0  0  0  0  0  0  0  0  0  0  0
   18.1729  -11.2830   15.7992 C   0  0  0  0  0  0  0  0  0  0  0  0
   17.9286  -10.8629   14.4882 C   0  0  0  0  0  0  0  0  0  0  0  0
   18.6039  -11.6231   13.3991 C   0  0  0  0  0  0  0  0  0  0  0  0
   16.1419   -8.8921   17.7987 N   0  0  0  0  0  0  0  0  0  0  0  0
   15.0913   -7.9132   17.7810 C   0  0  0  0  0  0  0  0  0  0  0  0
   14.5853   -7.5342   16.6896 O   0  0  0  0  0  0  0  0  0  0  0  0
   16.4935   -9.1445   18.6830 H   0  0  0  0  0  0  0  0  0  0  0  0
   14.6002   -7.3464   19.0494 C   0  0  0  0  0  0  0  0  0  0  0  0
   13.3759   -6.6625   19.0952 C   0  0  0  0  0  0  0  0  0  0  0  0
   12.9108   -6.1250   20.2990 C   0  0  0  0  0  0  0  0  0  0  0  0
   11.6131   -5.4024   20.3374 C   0  0  0  0  0  0  0  0  0  0  0  0
   13.6661   -6.2675   21.4660 C   0  0  0  0  0  0  0  0  0  0  0  0
   14.8866   -6.9472   21.4296 C   0  0  0  0  0  0  0  0  0  0  0  0
   15.3517   -7.4845   20.2257 C   0  0  0  0  0  0  0  0  0  0  0  0
   16.7490   -9.2468   12.9861 O   0  0  0  0  0  0  0  0  0  0  0  0
   16.2162   -9.9974   11.9043 C   0  0  0  0  0  0  0  0  0  0  0  0
   18.8398   -8.2619    7.4024 N   0  0  0  0  0  0  0  0  0  0  0  0
   19.7286   -7.4578    8.0375 C   0  0  0  0  0  0  0  0  0  0  0  0
   19.5443   -7.4852    9.3861 N   0  0  0  0  0  0  0  0  0  0  0  0
   18.5105   -8.3401    9.5106 C   0  0  0  0  0  0  0  0  0  0  0  0
   17.9301   -8.7130   10.6772 N   0  0  0  0  0  0  0  0  0  0  0  0
   16.8874   -9.5951   10.6405 C   0  0  0  0  0  0  0  0  0  0  0  0
   16.4151  -10.0948    9.4100 C   0  0  0  0  0  0  0  0  0  0  0  0
   17.0456   -9.6807    8.2300 C   0  0  0  0  0  0  0  0  0  0  0  0
   16.6547  -10.1077    7.1119 O   0  0  0  0  0  0  0  0  0  0  0  0
   18.0834   -8.8081    8.3363 N   0  0  0  0  0  0  0  0  0  0  0  0
   20.0343   -8.1434    5.2687 C   0  0  0  0  0  0  0  0  0  0  0  0
   18.7297   -8.4878    5.9630 C   0  0  0  0  0  0  0  0  0  0  0  0
   17.5974   -7.6633    5.3797 C   0  0  0  0  0  0  0  0  0  0  0  0
 31 32  1  0  0  0
 32 33  1  0  0  0
 32 21  1  0  0  0
 21 22  1  0  0  0
 22 23  2  0  0  0
 23 24  1  0  0  0
 24 25  2  0  0  0
 25 26  1  0  0  0
 26 20  1  0  0  0
 26 27  2  0  0  0
 20 19  1  0  0  0
 19  1  1  0  0  0
  1  2  2  0  0  0
  2  3  1  0  0  0
  3  8  1  0  0  0
  3  4  2  0  0  0
  8  9  1  0  0  0
  9 10  2  0  0  0
  9 12  1  0  0  0
 12 13  2  0  0  0
 13 14  1  0  0  0
 14 15  1  0  0  0
 14 16  2  0  0  0
 16 17  1  0  0  0
 17 18  2  0  0  0
 18 12  1  0  0  0
  4  5  1  0  0  0
  5  6  2  0  0  0
  6  7  1  0  0  0
  6  1  1  0  0  0
 27 28  1  0  0  0
 28 29  2  0  0  0
 28 30  1  0  0  0
 30 21  1  0  0  0
 30 24  1  0  0  0
  8 11  1  0  0  0
M  END
>  <minimizedAffinity>
-8.83576

>  <minimizedRMSD>
1.40176

$$$$
ChemDiv-G756-0360 MCULE-6394300379 MolPort-007-879-116 PubChem-46355983 ZINC000033067800 ZINC33067800


 33 36  0  0  0  0  0  0  0  0999 V2000
   18.7715  -12.4716   13.5729 C   0  0  0  0  0  0  0  0  0  0  0  0
   18.1098  -11.5950   14.5802 C   0  0  0  0  0  0  0  0  0  0  0  0
   18.0880  -12.0531   15.9012 C   0  0  0  0  0  0  0  0  0  0  0  0
   17.4828  -11.2996   16.9061 C   0  0  0  0  0  0  0  0  0  0  0  0
   16.8851  -10.0753   16.6049 C   0  0  0  0  0  0  0  0  0  0  0  0
   16.9068   -9.6086   15.2837 C   0  0  0  0  0  0  0  0  0  0  0  0
   17.5124  -10.3463   14.2602 C   0  0  0  0  0  0  0  0  0  0  0  0
   16.2809   -9.3225   17.6652 N   0  0  0  0  0  0  0  0  0  0  0  0
   15.5355   -8.1056   17.5363 C   0  0  0  0  0  0  0  0  0  0  0  0
   15.2749   -7.6141   16.4059 O   0  0  0  0  0  0  0  0  0  0  0  0
   16.3894   -9.6788   18.5765 H   0  0  0  0  0  0  0  0  0  0  0  0
   15.0298   -7.4287   18.7633 C   0  0  0  0  0  0  0  0  0  0  0  0
   13.9092   -6.6063   18.4520 O   0  0  0  0  0  0  0  0  0  0  0  0
   12.5818   -7.0504   18.5205 C   0  0  0  0  0  0  0  0  0  0  0  0
   11.5426   -6.1115   18.6276 C   0  0  0  0  0  0  0  0  0  0  0  0
   11.8856   -4.3910   18.6694 Cl  0  0  0  0  0  0  0  0  0  0  0  0
   10.2136   -6.5411   18.7067 C   0  0  0  0  0  0  0  0  0  0  0  0
    9.9118   -7.9048   18.6765 C   0  0  0  0  0  0  0  0  0  0  0  0
   10.9397   -8.8445   18.5669 C   0  0  0  0  0  0  0  0  0  0  0  0
   12.2688   -8.4199   18.4923 C   0  0  0  0  0  0  0  0  0  0  0  0
   17.4819   -9.7819   12.9745 O   0  0  0  0  0  0  0  0  0  0  0  0
   18.6037   -9.2555   12.2804 C   0  0  0  0  0  0  0  0  0  0  0  0
   18.3011   -9.1775   10.8269 C   0  0  0  0  0  0  0  0  0  0  0  0
   17.1889   -9.8377   10.3128 C   0  0  0  0  0  0  0  0  0  0  0  0
   16.9195   -9.7399    8.9481 C   0  0  0  0  0  0  0  0  0  0  0  0
   15.9072  -10.3311    8.4809 O   0  0  0  0  0  0  0  0  0  0  0  0
   17.7429   -9.0057    8.1365 N   0  0  0  0  0  0  0  0  0  0  0  0
   17.4820   -8.9157    6.7978 C   0  0  0  0  0  0  0  0  0  0  0  0
   18.3101   -8.1699    5.9570 C   0  0  0  0  0  0  0  0  0  0  0  0
   19.4146   -7.5098    6.4948 C   0  0  0  0  0  0  0  0  0  0  0  0
   19.6795   -7.6013    7.8601 C   0  0  0  0  0  0  0  0  0  0  0  0
   18.8327   -8.3565    8.6751 C   0  0  0  0  0  0  0  0  0  0  0  0
   19.0953   -8.4469   10.0046 N   0  0  0  0  0  0  0  0  0  0  0  0
  1  2  1  0  0  0
  2  3  2  0  0  0
  3  4  1  0  0  0
  4  5  2  0  0  0
  5  8  1  0  0  0
  5  6  1  0  0  0
  8  9  1  0  0  0
  9 10  2  0  0  0
  9 12  1  0  0  0
 12 13  1  0  0  0
 13 14  1  0  0  0
 14 15  2  0  0  0
 15 16  1  0  0  0
 15 17  1  0  0  0
 17 18  2  0  0  0
 18 19  1  0  0  0
 19 20  2  0  0  0
 20 14  1  0  0  0
  6  7  2  0  0  0
  7 21  1  0  0  0
  7  2  1  0  0  0
 21 22  1  0  0  0
 22 23  1  0  0  0
 23 24  2  0  0  0
 24 25  1  0  0  0
 25 26  2  0  0  0
 25 27  1  0  0  0
 27 28  1  0  0  0
 28 29  2  0  0  0
 29 30  1  0  0  0
 30 31  2  0  0  0
 31 32  1  0  0  0
 32 33  2  0  0  0
 32 27  1  0  0  0
 33 23  1  0  0  0
  8 11  1  0  0  0
M  END
>  <minimizedAffinity>
-8.83079

>  <minimizedRMSD>
1.30671

$$$$
ChemDiv-C679-5358 MCULE-7703748584 MolPort-007-656-078 PubChem-46258457 ZINC000020859409 ZINC20859409


 30 33  0  0  0  0  0  0  0  0999 V2000
   16.7476   -9.4483   14.1035 C   0  0  0  0  0  0  0  0  0  0  0  0
   17.9677  -10.1389   14.1726 C   0  0  0  0  0  0  0  0  0  0  0  0
   18.6121  -10.3061   15.4007 C   0  0  0  0  0  0  0  0  0  0  0  0
   18.0421   -9.7851   16.5652 C   0  0  0  0  0  0  0  0  0  0  0  0
   16.8268   -9.0946   16.5114 C   0  0  0  0  0  0  0  0  0  0  0  0
   16.1850   -8.9304   15.2743 C   0  0  0  0  0  0  0  0  0  0  0  0
   16.2746   -8.5751   17.7285 N   0  0  0  0  0  0  0  0  0  0  0  0
   15.0807   -7.7889   17.8666 C   0  0  0  0  0  0  0  0  0  0  0  0
   14.3930   -7.4827   16.8547 O   0  0  0  0  0  0  0  0  0  0  0  0
   16.7658   -8.7788   18.5571 H   0  0  0  0  0  0  0  0  0  0  0  0
   14.6555   -7.3359   19.2029 C   0  0  0  0  0  0  0  0  0  0  0  0
   13.3745   -6.7972   19.3962 C   0  0  0  0  0  0  0  0  0  0  0  0
   12.9721   -6.3678   20.6643 C   0  0  0  0  0  0  0  0  0  0  0  0
   13.8477   -6.4737   21.7481 C   0  0  0  0  0  0  0  0  0  0  0  0
   13.3440   -5.9362   23.3356 Cl  0  0  0  0  0  0  0  0  0  0  0  0
   15.1253   -7.0089   21.5646 C   0  0  0  0  0  0  0  0  0  0  0  0
   15.5277   -7.4384   20.2966 C   0  0  0  0  0  0  0  0  0  0  0  0
   16.0771   -9.2634   12.8918 O   0  0  0  0  0  0  0  0  0  0  0  0
   15.9882  -10.2784   11.9008 C   0  0  0  0  0  0  0  0  0  0  0  0
   18.4488   -8.5927    5.9406 C   0  0  0  0  0  0  0  0  0  0  0  0
   18.6966   -8.3928    7.3984 C   0  0  0  0  0  0  0  0  0  0  0  0
   19.7639   -7.6069    7.8435 C   0  0  0  0  0  0  0  0  0  0  0  0
   19.7251   -7.6123    9.5356 S   0  0  0  0  0  0  0  0  0  0  0  0
   18.3768   -8.5973    9.6156 C   0  0  0  0  0  0  0  0  0  0  0  0
   17.7713   -9.0225   10.7510 N   0  0  0  0  0  0  0  0  0  0  0  0
   16.6784   -9.8285   10.6632 C   0  0  0  0  0  0  0  0  0  0  0  0
   16.1759  -10.2010    9.4094 C   0  0  0  0  0  0  0  0  0  0  0  0
   16.8252   -9.7435    8.2579 C   0  0  0  0  0  0  0  0  0  0  0  0
   16.3844  -10.0755    7.1255 O   0  0  0  0  0  0  0  0  0  0  0  0
   17.9264   -8.9422    8.3887 N   0  0  0  0  0  0  0  0  0  0  0  0
 20 21  1  0  0  0
 21 22  2  0  0  0
 22 23  1  0  0  0
 23 24  1  0  0  0
 24 25  2  0  0  0
 25 26  1  0  0  0
 26 19  1  0  0  0
 26 27  2  0  0  0
 19 18  1  0  0  0
 18  1  1  0  0  0
  1  2  2  0  0  0
  2  3  1  0  0  0
  3  4  2  0  0  0
  4  5  1  0  0  0
  5  7  1  0  0  0
  5  6  2  0  0  0
  7  8  1  0  0  0
  8  9  2  0  0  0
  8 11  1  0  0  0
 11 12  2  0  0  0
 12 13  1  0  0  0
 13 14  2  0  0  0
 14 15  1  0  0  0
 14 16  1  0  0  0
 16 17  2  0  0  0
 17 11  1  0  0  0
  6  1  1  0  0  0
 27 28  1  0  0  0
 28 29  2  0  0  0
 28 30  1  0  0  0
 30 21  1  0  0  0
 30 24  1  0  0  0
  7 10  1  0  0  0
M  END
>  <minimizedAffinity>
-8.82568

>  <minimizedRMSD>
1.35297

$$$$
ChemDiv-G357-2492 CHEMBL1592520 MCULE-1622500149 MolPort-007-847-828 PubChem-16027573 ZINC000008607409 ZINC08607409


 34 38  0  0  0  0  0  0  0  0999 V2000
   17.8909  -10.7118   13.3603 C   0  0  0  0  0  0  0  0  0  0  0  0
   18.2157  -11.9315   13.3415 O   0  0  0  0  0  0  0  0  0  0  0  0
   16.4251   -8.9271   16.9704 C   0  0  0  0  0  0  0  0  0  0  0  0
   16.2656   -8.2750   15.7389 C   0  0  0  0  0  0  0  0  0  0  0  0
   16.7441   -8.8584   14.5627 C   0  0  0  0  0  0  0  0  0  0  0  0
   17.3883  -10.1015   14.6016 C   0  0  0  0  0  0  0  0  0  0  0  0
   17.5477  -10.7532   15.8324 C   0  0  0  0  0  0  0  0  0  0  0  0
   17.0686  -10.1683   17.0080 C   0  0  0  0  0  0  0  0  0  0  0  0
   13.9683   -7.3764   17.4176 O   0  0  0  0  0  0  0  0  0  0  0  0
   14.7414   -7.6051   18.3875 C   0  0  0  0  0  0  0  0  0  0  0  0
   15.9481   -8.3602   18.1982 N   0  0  0  0  0  0  0  0  0  0  0  0
   16.5071   -8.5039   18.9958 H   0  0  0  0  0  0  0  0  0  0  0  0
   14.4034   -7.0930   19.7275 C   0  0  0  0  0  0  0  0  0  0  0  0
   15.2679   -7.3140   20.8095 C   0  0  0  0  0  0  0  0  0  0  0  0
   14.9481   -6.8287   22.0810 C   0  0  0  0  0  0  0  0  0  0  0  0
   13.7612   -6.1185   22.2798 C   0  0  0  0  0  0  0  0  0  0  0  0
   12.8939   -5.8936   21.2075 C   0  0  0  0  0  0  0  0  0  0  0  0
   13.2137   -6.3789   19.9360 C   0  0  0  0  0  0  0  0  0  0  0  0
   18.0068   -9.9348   12.2054 O   0  0  0  0  0  0  0  0  0  0  0  0
   16.8948   -9.6711   11.3626 C   0  0  0  0  0  0  0  0  0  0  0  0
   17.3734   -9.3685    9.9880 C   0  0  0  0  0  0  0  0  0  0  0  0
   16.6855   -9.8836    8.8811 C   0  0  0  0  0  0  0  0  0  0  0  0
   17.1359   -9.5640    7.5962 C   0  0  0  0  0  0  0  0  0  0  0  0
   16.5300  -10.0270    6.5935 O   0  0  0  0  0  0  0  0  0  0  0  0
   18.2283   -8.7536    7.4577 N   0  0  0  0  0  0  0  0  0  0  0  0
   18.8644   -8.2650    8.5513 C   0  0  0  0  0  0  0  0  0  0  0  0
   20.1750   -7.2858    8.1602 S   0  0  0  0  0  0  0  0  0  0  0  0
   19.9081   -7.4779    6.5051 C   0  0  0  0  0  0  0  0  0  0  0  0
   18.8222   -8.3302    6.3016 C   0  0  0  0  0  0  0  0  0  0  0  0
   18.3238   -8.6419    4.9154 C   0  0  0  0  0  0  0  0  0  0  0  0
   19.4130   -8.3994    3.8652 C   0  0  0  0  0  0  0  0  0  0  0  0
   20.0534   -7.0230    4.0615 C   0  0  0  0  0  0  0  0  0  0  0  0
   20.7798   -6.9514    5.4078 C   0  0  0  0  0  0  0  0  0  0  0  0
   18.4519   -8.5581    9.8087 N   0  0  0  0  0  0  0  0  0  0  0  0
  9 10  2  0  0  0
 10 11  1  0  0  0
 10 13  1  0  0  0
 11  3  1  0  0  0
  3  4  2  0  0  0
  4  5  1  0  0  0
  5  6  2  0  0  0
  6  7  1  0  0  0
  6  1  1  0  0  0
  7  8  2  0  0  0
  8  3  1  0  0  0
  1  2  2  0  0  0
  1 19  1  0  0  0
 19 20  1  0  0  0
 20 21  1  0  0  0
 21 22  2  0  0  0
 22 23  1  0  0  0
 23 24  2  0  0  0
 23 25  1  0  0  0
 25 26  1  0  0  0
 26 27  1  0  0  0
 26 34  2  0  0  0
 27 28  1  0  0  0
 28 29  2  0  0  0
 29 30  1  0  0  0
 29 25  1  0  0  0
 30 31  1  0  0  0
 31 32  1  0  0  0
 32 33  1  0  0  0
 33 28  1  0  0  0
 34 21  1  0  0  0
 13 14  2  0  0  0
 14 15  1  0  0  0
 15 16  2  0  0  0
 16 17  1  0  0  0
 17 18  2  0  0  0
 18 13  1  0  0  0
 11 12  1  0  0  0
M  END
>  <minimizedAffinity>
-8.80755

>  <minimizedRMSD>
1.27501

$$$$
ChemDiv-G355-3272 MCULE-1220108427 MolPort-010-743-029 PubChem-50793998 ZINC000035428414 ZINC35428414


 32 35  0  0  0  0  0  0  0  0999 V2000
   17.4646  -10.2244   14.3452 C   0  0  0  0  0  0  0  0  0  0  0  0
   16.9782   -9.4186   15.3812 C   0  0  0  0  0  0  0  0  0  0  0  0
   16.9994   -9.8505   16.7138 C   0  0  0  0  0  0  0  0  0  0  0  0
   17.5151  -11.1116   17.0132 C   0  0  0  0  0  0  0  0  0  0  0  0
   18.0054  -11.9315   15.9965 C   0  0  0  0  0  0  0  0  0  0  0  0
   17.9878  -11.5054   14.6649 C   0  0  0  0  0  0  0  0  0  0  0  0
   18.5315  -12.4483   13.6474 C   0  0  0  0  0  0  0  0  0  0  0  0
   16.5014   -9.0362   17.7839 N   0  0  0  0  0  0  0  0  0  0  0  0
   15.4828   -8.0315   17.6933 C   0  0  0  0  0  0  0  0  0  0  0  0
   14.9314   -7.7559   16.5951 O   0  0  0  0  0  0  0  0  0  0  0  0
   16.9000   -9.1820   18.6722 H   0  0  0  0  0  0  0  0  0  0  0  0
   15.0602   -7.3058   18.9242 C   0  0  0  0  0  0  0  0  0  0  0  0
   13.9196   -7.9335   19.5020 O   0  0  0  0  0  0  0  0  0  0  0  0
   12.6127   -7.4649   19.3272 C   0  0  0  0  0  0  0  0  0  0  0  0
   11.7207   -8.2197   18.5576 C   0  0  0  0  0  0  0  0  0  0  0  0
   10.4074   -7.7803   18.3648 C   0  0  0  0  0  0  0  0  0  0  0  0
    9.9787   -6.5820   18.9430 C   0  0  0  0  0  0  0  0  0  0  0  0
   10.8627   -5.8230   19.7145 C   0  0  0  0  0  0  0  0  0  0  0  0
   12.1756   -6.2623   19.9073 C   0  0  0  0  0  0  0  0  0  0  0  0
   17.3943   -9.6905   13.0483 O   0  0  0  0  0  0  0  0  0  0  0  0
   18.4914   -9.1775   12.3063 C   0  0  0  0  0  0  0  0  0  0  0  0
   18.7702   -7.9799    5.1070 C   0  0  0  0  0  0  0  0  0  0  0  0
   18.5195   -8.3440    6.5261 C   0  0  0  0  0  0  0  0  0  0  0  0
   19.3425   -7.9952    7.6025 C   0  0  0  0  0  0  0  0  0  0  0  0
   18.6549   -8.5738    8.6521 C   0  0  0  0  0  0  0  0  0  0  0  0
   18.9841   -8.5616    9.9671 N   0  0  0  0  0  0  0  0  0  0  0  0
   18.1665   -9.2013   10.8560 C   0  0  0  0  0  0  0  0  0  0  0  0
   16.9941   -9.8482   10.4138 C   0  0  0  0  0  0  0  0  0  0  0  0
   16.6965   -9.8327    9.0457 C   0  0  0  0  0  0  0  0  0  0  0  0
   15.6636  -10.3988    8.6013 O   0  0  0  0  0  0  0  0  0  0  0  0
   17.5520   -9.1888    8.2163 N   0  0  0  0  0  0  0  0  0  0  0  0
   17.4791   -9.0445    6.9327 O   0  0  0  0  0  0  0  0  0  0  0  0
 22 23  1  0  0  0
 23 24  2  0  0  0
 24 25  1  0  0  0
 25 26  2  0  0  0
 26 27  1  0  0  0
 27 21  1  0  0  0
 27 28  2  0  0  0
 21 20  1  0  0  0
 20  1  1  0  0  0
  1  2  2  0  0  0
  2  3  1  0  0  0
  3  8  1  0  0  0
  3  4  2  0  0  0
  8  9  1  0  0  0
  9 10  2  0  0  0
  9 12  1  0  0  0
 12 13  1  0  0  0
 13 14  1  0  0  0
 14 15  2  0  0  0
 15 16  1  0  0  0
 16 17  2  0  0  0
 17 18  1  0  0  0
 18 19  2  0  0  0
 19 14  1  0  0  0
  4  5  1  0  0  0
  5  6  2  0  0  0
  6  7  1  0  0  0
  6  1  1  0  0  0
 28 29  1  0  0  0
 29 30  2  0  0  0
 29 31  1  0  0  0
 31 32  1  0  0  0
 31 25  1  0  0  0
 32 23  1  0  0  0
  8 11  1  0  0  0
M  END
>  <minimizedAffinity>
-8.80376

>  <minimizedRMSD>
1.33790

$$$$
ChemDiv-D439-4147 MCULE-6273110940 MolPort-007-706-779 PubChem-46268361 ZINC000021797132 ZINC21797132


 36 39  0  0  0  0  0  0  0  0999 V2000
   16.8786   -9.5923   16.6563 C   0  0  0  0  0  0  0  0  0  0  0  0
   17.6959  -10.7117   16.8148 C   0  0  0  0  0  0  0  0  0  0  0  0
   18.1993  -11.3801   15.6985 C   0  0  0  0  0  0  0  0  0  0  0  0
   17.8944  -10.9415   14.4064 C   0  0  0  0  0  0  0  0  0  0  0  0
   18.4790  -11.7158   13.2755 C   0  0  0  0  0  0  0  0  0  0  0  0
   17.0637   -9.8031   14.2298 C   0  0  0  0  0  0  0  0  0  0  0  0
   16.5705   -9.1477   15.3640 C   0  0  0  0  0  0  0  0  0  0  0  0
   15.3318   -7.9543   17.8779 C   0  0  0  0  0  0  0  0  0  0  0  0
   14.7128   -7.6028   16.8391 O   0  0  0  0  0  0  0  0  0  0  0  0
   16.3809   -8.9294   17.8263 N   0  0  0  0  0  0  0  0  0  0  0  0
   16.8035   -9.1689   18.6827 H   0  0  0  0  0  0  0  0  0  0  0  0
   14.9402   -7.3766   19.1900 C   0  0  0  0  0  0  0  0  0  0  0  0
   13.5356   -7.5059   19.3655 O   0  0  0  0  0  0  0  0  0  0  0  0
   11.3431   -6.4891   19.5629 C   0  0  0  0  0  0  0  0  0  0  0  0
   12.7267   -6.4537   19.8101 C   0  0  0  0  0  0  0  0  0  0  0  0
   13.2747   -5.3589   20.4999 C   0  0  0  0  0  0  0  0  0  0  0  0
   12.4551   -4.3174   20.9415 C   0  0  0  0  0  0  0  0  0  0  0  0
   11.0807   -4.3607   20.7001 C   0  0  0  0  0  0  0  0  0  0  0  0
   10.5260   -5.4442   20.0151 C   0  0  0  0  0  0  0  0  0  0  0  0
   10.7942   -7.4472   17.3452 C   0  0  0  0  0  0  0  0  0  0  0  0
   10.7304   -7.6500   18.8480 C   0  0  0  0  0  0  0  0  0  0  0  0
   16.6904   -9.2714   12.9848 O   0  0  0  0  0  0  0  0  0  0  0  0
   16.1663  -10.0147   11.8938 C   0  0  0  0  0  0  0  0  0  0  0  0
   16.8483   -9.6051   10.6381 C   0  0  0  0  0  0  0  0  0  0  0  0
   16.3935  -10.1062    9.4015 C   0  0  0  0  0  0  0  0  0  0  0  0
   17.0349   -9.6863    8.2296 C   0  0  0  0  0  0  0  0  0  0  0  0
   16.6598  -10.1141    7.1064 O   0  0  0  0  0  0  0  0  0  0  0  0
   18.0660   -8.8074    8.3491 N   0  0  0  0  0  0  0  0  0  0  0  0
   18.8301   -8.2557    7.4247 N   0  0  0  0  0  0  0  0  0  0  0  0
   19.7063   -7.4470    8.0711 C   0  0  0  0  0  0  0  0  0  0  0  0
   19.5060   -7.4767    9.4174 N   0  0  0  0  0  0  0  0  0  0  0  0
   18.4762   -8.3381    9.5288 C   0  0  0  0  0  0  0  0  0  0  0  0
   17.8846   -8.7163   10.6882 N   0  0  0  0  0  0  0  0  0  0  0  0
   18.7410   -8.4835    5.9843 C   0  0  0  0  0  0  0  0  0  0  0  0
   20.0485   -8.1201    5.3058 C   0  0  0  0  0  0  0  0  0  0  0  0
   17.6026   -7.6780    5.3864 C   0  0  0  0  0  0  0  0  0  0  0  0
 20 21  1  0  0  0
 21 14  1  0  0  0
 14 15  2  0  0  0
 15 13  1  0  0  0
 15 16  1  0  0  0
 13 12  1  0  0  0
 12  8  1  0  0  0
  8  9  2  0  0  0
  8 10  1  0  0  0
 10  1  1  0  0  0
  1  2  2  0  0  0
  2  3  1  0  0  0
  3  4  2  0  0  0
  4  5  1  0  0  0
  4  6  1  0  0  0
  6 22  1  0  0  0
  6  7  2  0  0  0
 22 23  1  0  0  0
 23 24  1  0  0  0
 24 25  2  0  0  0
 25 26  1  0  0  0
 26 27  2  0  0  0
 26 28  1  0  0  0
 28 29  1  0  0  0
 29 30  1  0  0  0
 29 34  1  0  0  0
 30 31  2  0  0  0
 31 32  1  0  0  0
 32 33  2  0  0  0
 32 28  1  0  0  0
 33 24  1  0  0  0
 34 35  1  0  0  0
 34 36  1  0  0  0
  7  1  1  0  0  0
 16 17  2  0  0  0
 17 18  1  0  0  0
 18 19  2  0  0  0
 19 14  1  0  0  0
 10 11  1  0  0  0
M  END
>  <minimizedAffinity>
-8.79977

>  <minimizedRMSD>
1.11615

$$$$
ChemDiv-G355-3310 MCULE-5652474954 MolPort-010-743-046 PubChem-50794003 ZINC000035428455 ZINC35428455


 32 35  0  0  0  0  0  0  0  0999 V2000
   17.4733  -10.2292   14.3482 C   0  0  0  0  0  0  0  0  0  0  0  0
   16.9953   -9.3608   15.3363 C   0  0  0  0  0  0  0  0  0  0  0  0
   16.9928   -9.7242   16.6893 C   0  0  0  0  0  0  0  0  0  0  0  0
   17.4757  -10.9797   17.0584 C   0  0  0  0  0  0  0  0  0  0  0  0
   17.9569  -11.8617   16.0903 C   0  0  0  0  0  0  0  0  0  0  0  0
   17.9629  -11.5040   14.7386 C   0  0  0  0  0  0  0  0  0  0  0  0
   18.4945  -12.5098   13.7765 C   0  0  0  0  0  0  0  0  0  0  0  0
   16.5022   -8.8451   17.7105 N   0  0  0  0  0  0  0  0  0  0  0  0
   15.3123   -8.0475   17.6544 C   0  0  0  0  0  0  0  0  0  0  0  0
   14.5754   -8.0430   16.6329 O   0  0  0  0  0  0  0  0  0  0  0  0
   17.0373   -8.7829   18.5345 H   0  0  0  0  0  0  0  0  0  0  0  0
   14.9233   -7.2288   18.8381 C   0  0  0  0  0  0  0  0  0  0  0  0
   13.7453   -7.8590   19.5720 C   0  0  0  0  0  0  0  0  0  0  0  0
   12.6062   -6.9024   19.7095 C   0  0  0  0  0  0  0  0  0  0  0  0
   11.4197   -7.1349   19.0056 C   0  0  0  0  0  0  0  0  0  0  0  0
   10.3446   -6.2499   19.1320 C   0  0  0  0  0  0  0  0  0  0  0  0
   10.4528   -5.1328   19.9659 C   0  0  0  0  0  0  0  0  0  0  0  0
   11.6354   -4.9012   20.6752 C   0  0  0  0  0  0  0  0  0  0  0  0
   12.7109   -5.7857   20.5489 C   0  0  0  0  0  0  0  0  0  0  0  0
   17.4289   -9.7608   13.0252 O   0  0  0  0  0  0  0  0  0  0  0  0
   18.5344   -9.2543   12.2910 C   0  0  0  0  0  0  0  0  0  0  0  0
   18.7899   -7.8596    5.1264 C   0  0  0  0  0  0  0  0  0  0  0  0
   18.5428   -8.2612    6.5362 C   0  0  0  0  0  0  0  0  0  0  0  0
   19.3728   -7.9478    7.6180 C   0  0  0  0  0  0  0  0  0  0  0  0
   18.6865   -8.5515    8.6542 C   0  0  0  0  0  0  0  0  0  0  0  0
   19.0214   -8.5779    9.9674 N   0  0  0  0  0  0  0  0  0  0  0  0
   18.2035   -9.2366   10.8420 C   0  0  0  0  0  0  0  0  0  0  0  0
   17.0251   -9.8635   10.3874 C   0  0  0  0  0  0  0  0  0  0  0  0
   16.7216   -9.8083    9.0215 C   0  0  0  0  0  0  0  0  0  0  0  0
   15.6830  -10.3550    8.5663 O   0  0  0  0  0  0  0  0  0  0  0  0
   17.5777   -9.1472    8.2063 N   0  0  0  0  0  0  0  0  0  0  0  0
   17.4997   -8.9663    6.9278 O   0  0  0  0  0  0  0  0  0  0  0  0
 22 23  1  0  0  0
 23 24  2  0  0  0
 24 25  1  0  0  0
 25 26  2  0  0  0
 26 27  1  0  0  0
 27 21  1  0  0  0
 27 28  2  0  0  0
 21 20  1  0  0  0
 20  1  1  0  0  0
  1  2  2  0  0  0
  2  3  1  0  0  0
  3  8  1  0  0  0
  3  4  2  0  0  0
  8  9  1  0  0  0
  9 10  2  0  0  0
  9 12  1  0  0  0
 12 13  1  0  0  0
 13 14  1  0  0  0
 14 15  2  0  0  0
 15 16  1  0  0  0
 16 17  2  0  0  0
 17 18  1  0  0  0
 18 19  2  0  0  0
 19 14  1  0  0  0
  4  5  1  0  0  0
  5  6  2  0  0  0
  6  7  1  0  0  0
  6  1  1  0  0  0
 28 29  1  0  0  0
 29 30  2  0  0  0
 29 31  1  0  0  0
 31 32  1  0  0  0
 31 25  1  0  0  0
 32 23  1  0  0  0
  8 11  1  0  0  0
M  END
>  <minimizedAffinity>
-8.78425

>  <minimizedRMSD>
1.85712

$$$$
ChemDiv-G756-1263 MCULE-9348682969 MolPort-007-879-696 PubChem-46356472 ZINC000033068084 ZINC33068084


 34 37  0  0  0  0  0  0  0  0999 V2000
   17.7828  -10.2480   14.1908 C   0  0  0  0  0  0  0  0  0  0  0  0
   17.3003   -9.2661   15.0712 C   0  0  0  0  0  0  0  0  0  0  0  0
   17.1438   -9.5398   16.4375 C   0  0  0  0  0  0  0  0  0  0  0  0
   17.4768  -10.8077   16.9221 C   0  0  0  0  0  0  0  0  0  0  0  0
   17.9578  -11.7919   16.0553 C   0  0  0  0  0  0  0  0  0  0  0  0
   18.1115  -11.5173   14.6935 C   0  0  0  0  0  0  0  0  0  0  0  0
   18.6259  -12.5864   13.7928 C   0  0  0  0  0  0  0  0  0  0  0  0
   16.6564   -8.5542   17.3581 N   0  0  0  0  0  0  0  0  0  0  0  0
   15.2883   -8.3101   17.7088 C   0  0  0  0  0  0  0  0  0  0  0  0
   14.3623   -9.0231   17.2355 O   0  0  0  0  0  0  0  0  0  0  0  0
   14.9888   -7.2680   18.6420 N   0  0  0  0  0  0  0  0  0  0  0  0
   17.3317   -7.9862   17.7947 H   0  0  0  0  0  0  0  0  0  0  0  0
   15.7414   -6.8715   19.1375 H   0  0  0  0  0  0  0  0  0  0  0  0
   13.6766   -6.7570   18.9109 C   0  0  0  0  0  0  0  0  0  0  0  0
   13.2924   -6.2866   20.1877 C   0  0  0  0  0  0  0  0  0  0  0  0
   14.2081   -6.3423   21.3629 C   0  0  0  0  0  0  0  0  0  0  0  0
   11.9904   -5.8177   20.3905 C   0  0  0  0  0  0  0  0  0  0  0  0
   11.0655   -5.8231   19.3441 C   0  0  0  0  0  0  0  0  0  0  0  0
   11.4342   -6.3123   18.0900 C   0  0  0  0  0  0  0  0  0  0  0  0
   12.7318   -6.7838   17.8786 C   0  0  0  0  0  0  0  0  0  0  0  0
   17.9412   -9.9806   12.8263 O   0  0  0  0  0  0  0  0  0  0  0  0
   17.4568   -8.7927   12.2136 C   0  0  0  0  0  0  0  0  0  0  0  0
   20.3656   -6.8471    5.7697 C   0  0  0  0  0  0  0  0  0  0  0  0
   19.4162   -7.6833    6.5494 C   0  0  0  0  0  0  0  0  0  0  0  0
   19.3336   -7.5402    7.9332 C   0  0  0  0  0  0  0  0  0  0  0  0
   18.4370   -8.3328    8.6535 C   0  0  0  0  0  0  0  0  0  0  0  0
   18.3600   -8.1934   10.0021 N   0  0  0  0  0  0  0  0  0  0  0  0
   17.4993   -8.9428   10.7353 C   0  0  0  0  0  0  0  0  0  0  0  0
   16.6886   -9.8836   10.1077 C   0  0  0  0  0  0  0  0  0  0  0  0
   16.7701  -10.0242    8.7231 C   0  0  0  0  0  0  0  0  0  0  0  0
   16.0340  -10.8745    8.1517 O   0  0  0  0  0  0  0  0  0  0  0  0
   17.6406   -9.2499    8.0037 N   0  0  0  0  0  0  0  0  0  0  0  0
   17.7206   -9.3895    6.6466 C   0  0  0  0  0  0  0  0  0  0  0  0
   18.6066   -8.6118    5.8986 C   0  0  0  0  0  0  0  0  0  0  0  0
 23 24  1  0  0  0
 24 25  2  0  0  0
 25 26  1  0  0  0
 26 27  2  0  0  0
 27 28  1  0  0  0
 28 22  1  0  0  0
 28 29  2  0  0  0
 22 21  1  0  0  0
 21  1  1  0  0  0
  1  2  2  0  0  0
  2  3  1  0  0  0
  3  8  1  0  0  0
  3  4  2  0  0  0
  8  9  1  0  0  0
  9 10  2  0  0  0
  9 11  1  0  0  0
 11 14  1  0  0  0
 14 15  2  0  0  0
 15 16  1  0  0  0
 15 17  1  0  0  0
 17 18  2  0  0  0
 18 19  1  0  0  0
 19 20  2  0  0  0
 20 14  1  0  0  0
  4  5  1  0  0  0
  5  6  2  0  0  0
  6  7  1  0  0  0
  6  1  1  0  0  0
 29 30  1  0  0  0
 30 31  2  0  0  0
 30 32  1  0  0  0
 32 33  1  0  0  0
 32 26  1  0  0  0
 33 34  2  0  0  0
 34 24  1  0  0  0
  8 12  1  0  0  0
 11 13  1  0  0  0
M  END
>  <minimizedAffinity>
-8.77510

>  <minimizedRMSD>
1.60225

$$$$
ChemDiv-G756-0142 MCULE-3358538949 MolPort-010-686-762 PubChem-50802146 ZINC000033268516 ZINC33268516


 32 35  0  0  0  0  0  0  0  0999 V2000
   16.8056   -9.5192   17.0714 C   0  0  0  0  0  0  0  0  0  0  0  0
   16.8610   -9.1542   15.7175 C   0  0  0  0  0  0  0  0  0  0  0  0
   17.4074  -10.0203   14.7663 C   0  0  0  0  0  0  0  0  0  0  0  0
   17.9032  -11.2687   15.1760 C   0  0  0  0  0  0  0  0  0  0  0  0
   17.8489  -11.6395   16.5221 C   0  0  0  0  0  0  0  0  0  0  0  0
   17.3016  -10.7665   17.4654 C   0  0  0  0  0  0  0  0  0  0  0  0
   15.1013   -7.8009   17.9182 C   0  0  0  0  0  0  0  0  0  0  0  0
   14.4767   -7.7312   16.8262 O   0  0  0  0  0  0  0  0  0  0  0  0
   16.2452   -8.6539   18.0678 N   0  0  0  0  0  0  0  0  0  0  0  0
   16.6914   -8.6441   18.9453 H   0  0  0  0  0  0  0  0  0  0  0  0
   14.6210   -7.0051   19.0809 C   0  0  0  0  0  0  0  0  0  0  0  0
   15.1376   -7.5491   20.2869 O   0  0  0  0  0  0  0  0  0  0  0  0
   12.6048   -6.4350   21.9653 Cl  0  0  0  0  0  0  0  0  0  0  0  0
   14.3243   -6.2987   22.3040 C   0  0  0  0  0  0  0  0  0  0  0  0
   15.3514   -6.8420   21.4825 C   0  0  0  0  0  0  0  0  0  0  0  0
   16.6857   -6.6720   21.8740 C   0  0  0  0  0  0  0  0  0  0  0  0
   17.0143   -5.9769   23.0389 C   0  0  0  0  0  0  0  0  0  0  0  0
   16.0055   -5.4382   23.8341 C   0  0  0  0  0  0  0  0  0  0  0  0
   14.6692   -5.6008   23.4669 C   0  0  0  0  0  0  0  0  0  0  0  0
   17.4437   -9.6168   13.4292 O   0  0  0  0  0  0  0  0  0  0  0  0
   18.4635  -10.0260   12.5276 C   0  0  0  0  0  0  0  0  0  0  0  0
   18.0798   -9.6484   11.1416 C   0  0  0  0  0  0  0  0  0  0  0  0
   16.8743  -10.0935   10.6071 C   0  0  0  0  0  0  0  0  0  0  0  0
   16.5260   -9.7000    9.3158 C   0  0  0  0  0  0  0  0  0  0  0  0
   15.4364  -10.1083    8.8269 O   0  0  0  0  0  0  0  0  0  0  0  0
   17.3593   -8.8842    8.5971 N   0  0  0  0  0  0  0  0  0  0  0  0
   17.0158   -8.4946    7.3331 C   0  0  0  0  0  0  0  0  0  0  0  0
   17.8535   -7.6618    6.5884 C   0  0  0  0  0  0  0  0  0  0  0  0
   19.0536   -7.2255    7.1460 C   0  0  0  0  0  0  0  0  0  0  0  0
   19.4036   -7.6225    8.4347 C   0  0  0  0  0  0  0  0  0  0  0  0
   18.5443   -8.4560    9.1543 C   0  0  0  0  0  0  0  0  0  0  0  0
   18.8871   -8.8387   10.4111 N   0  0  0  0  0  0  0  0  0  0  0  0
 13 14  1  0  0  0
 14 15  2  0  0  0
 15 12  1  0  0  0
 12 11  1  0  0  0
 11  7  1  0  0  0
  7  8  2  0  0  0
  7  9  1  0  0  0
  9  1  1  0  0  0
  1  2  2  0  0  0
  2  3  1  0  0  0
  3 20  1  0  0  0
 20 21  1  0  0  0
 21 22  1  0  0  0
 22 23  2  0  0  0
 23 24  1  0  0  0
 24 25  2  0  0  0
 24 26  1  0  0  0
 26 27  1  0  0  0
 27 28  2  0  0  0
 28 29  1  0  0  0
 29 30  2  0  0  0
 30 31  1  0  0  0
 31 32  2  0  0  0
  3  4  2  0  0  0
  4  5  1  0  0  0
  5  6  2  0  0  0
 15 16  1  0  0  0
 16 17  2  0  0  0
 17 18  1  0  0  0
 18 19  2  0  0  0
 19 14  1  0  0  0
  6  1  1  0  0  0
 32 22  1  0  0  0
 31 26  1  0  0  0
  9 10  1  0  0  0
M  END
>  <minimizedAffinity>
-8.76327

>  <minimizedRMSD>
1.00237

$$$$
ChemDiv-C679-4226 MCULE-2024756471 MolPort-007-655-830 PubChem-46258340 ZINC000013368041 ZINC13368041


 34 37  0  0  0  0  0  0  0  0999 V2000
   16.9398  -10.1085   16.4918 C   0  0  0  0  0  0  0  0  0  0  0  0
   17.1035   -9.6258   15.1844 C   0  0  0  0  0  0  0  0  0  0  0  0
   17.8587  -10.3399   14.2487 C   0  0  0  0  0  0  0  0  0  0  0  0
   18.4568  -11.5521   14.6274 C   0  0  0  0  0  0  0  0  0  0  0  0
   18.2981  -12.0384   15.9273 C   0  0  0  0  0  0  0  0  0  0  0  0
   17.5417  -11.3176   16.8551 C   0  0  0  0  0  0  0  0  0  0  0  0
   15.4201   -8.1918   17.2717 C   0  0  0  0  0  0  0  0  0  0  0  0
   15.3806   -7.6418   16.1374 O   0  0  0  0  0  0  0  0  0  0  0  0
   16.1716   -9.3988   17.4730 N   0  0  0  0  0  0  0  0  0  0  0  0
   16.1581   -9.7794   18.3808 H   0  0  0  0  0  0  0  0  0  0  0  0
   13.2934   -6.4470   20.5605 C   0  0  0  0  0  0  0  0  0  0  0  0
   12.7457   -6.4179   19.2681 C   0  0  0  0  0  0  0  0  0  0  0  0
   13.4390   -6.9867   18.1964 C   0  0  0  0  0  0  0  0  0  0  0  0
   14.6876   -7.5913   18.4007 C   0  0  0  0  0  0  0  0  0  0  0  0
   15.2317   -7.6181   19.6924 C   0  0  0  0  0  0  0  0  0  0  0  0
   14.5384   -7.0493   20.7645 C   0  0  0  0  0  0  0  0  0  0  0  0
   12.6254   -5.8866   21.6529 O   0  0  0  0  0  0  0  0  0  0  0  0
   10.7966   -4.7257   22.6824 C   0  0  0  0  0  0  0  0  0  0  0  0
   11.7879   -4.7440   21.5376 C   0  0  0  0  0  0  0  0  0  0  0  0
   17.9981   -9.8252   12.9573 O   0  0  0  0  0  0  0  0  0  0  0  0
   16.9141   -9.2511   12.2388 C   0  0  0  0  0  0  0  0  0  0  0  0
   17.2067   -9.2873   10.7817 C   0  0  0  0  0  0  0  0  0  0  0  0
   16.4587  -10.1274    9.9403 C   0  0  0  0  0  0  0  0  0  0  0  0
   16.7357  -10.1244    8.5687 C   0  0  0  0  0  0  0  0  0  0  0  0
   16.0858  -10.8693    7.7882 O   0  0  0  0  0  0  0  0  0  0  0  0
   17.7130   -9.3049    8.0993 N   0  0  0  0  0  0  0  0  0  0  0  0
   18.0726   -9.2059    6.8218 N   0  0  0  0  0  0  0  0  0  0  0  0
   19.0737   -8.3072    6.6421 C   0  0  0  0  0  0  0  0  0  0  0  0
   19.5527   -7.5892    8.1031 S   0  0  0  0  0  0  0  0  0  0  0  0
   18.4104   -8.5017    8.9298 C   0  0  0  0  0  0  0  0  0  0  0  0
   18.1719   -8.4758   10.2637 N   0  0  0  0  0  0  0  0  0  0  0  0
   19.6785   -7.9882    5.3161 C   0  0  0  0  0  0  0  0  0  0  0  0
   18.6858   -8.2622    4.2033 C   0  0  0  0  0  0  0  0  0  0  0  0
   20.1149   -6.5369    5.2703 C   0  0  0  0  0  0  0  0  0  0  0  0
 18 19  1  0  0  0
 19 17  1  0  0  0
 17 11  1  0  0  0
 11 12  2  0  0  0
 12 13  1  0  0  0
 13 14  2  0  0  0
 14 15  1  0  0  0
 14  7  1  0  0  0
 15 16  2  0  0  0
 16 11  1  0  0  0
  7  8  2  0  0  0
  7  9  1  0  0  0
  9  1  1  0  0  0
  1  2  2  0  0  0
  2  3  1  0  0  0
  3 20  1  0  0  0
  3  4  2  0  0  0
 20 21  1  0  0  0
 21 22  1  0  0  0
 22 23  2  0  0  0
 23 24  1  0  0  0
 24 25  2  0  0  0
 24 26  1  0  0  0
 26 27  1  0  0  0
 27 28  2  0  0  0
 28 29  1  0  0  0
 28 32  1  0  0  0
 29 30  1  0  0  0
 30 31  2  0  0  0
 30 26  1  0  0  0
 31 22  1  0  0  0
 32 33  1  0  0  0
 32 34  1  0  0  0
  4  5  1  0  0  0
  5  6  2  0  0  0
  6  1  1  0  0  0
  9 10  1  0  0  0
M  END
>  <minimizedAffinity>
-8.75269

>  <minimizedRMSD>
1.28190

$$$$
ChemDiv-G756-1284 MCULE-9167926217 MolPort-007-879-714 PubChem-46356490 ZINC000033068102 ZINC33068102


 37 40  0  0  0  0  0  0  0  0999 V2000
   17.2734   -9.6342   16.5739 C   0  0  0  0  0  0  0  0  0  0  0  0
   17.6163  -10.9338   16.9476 C   0  0  0  0  0  0  0  0  0  0  0  0
   17.9508  -11.8805   15.9788 C   0  0  0  0  0  0  0  0  0  0  0  0
   17.9478  -11.5446   14.6216 C   0  0  0  0  0  0  0  0  0  0  0  0
   18.3161  -12.6207   13.6592 C   0  0  0  0  0  0  0  0  0  0  0  0
   17.6001  -10.2254   14.2263 C   0  0  0  0  0  0  0  0  0  0  0  0
   17.2679   -9.2923   15.2152 C   0  0  0  0  0  0  0  0  0  0  0  0
   15.4807   -7.3064   19.0312 N   0  0  0  0  0  0  0  0  0  0  0  0
   15.6182   -8.2551   17.9653 C   0  0  0  0  0  0  0  0  0  0  0  0
   14.6037   -8.6968   17.3615 O   0  0  0  0  0  0  0  0  0  0  0  0
   16.9339   -8.6883   17.5972 N   0  0  0  0  0  0  0  0  0  0  0  0
   16.3158   -7.0049   19.4566 H   0  0  0  0  0  0  0  0  0  0  0  0
   17.6836   -8.2952   18.0997 H   0  0  0  0  0  0  0  0  0  0  0  0
   11.8628   -5.6409   20.5343 C   0  0  0  0  0  0  0  0  0  0  0  0
   12.9079   -5.9631   21.4109 C   0  0  0  0  0  0  0  0  0  0  0  0
   14.1072   -6.5123   20.9425 C   0  0  0  0  0  0  0  0  0  0  0  0
   14.2641   -6.7450   19.5501 C   0  0  0  0  0  0  0  0  0  0  0  0
   13.2095   -6.4172   18.6834 C   0  0  0  0  0  0  0  0  0  0  0  0
   12.0219   -5.8713   19.1691 C   0  0  0  0  0  0  0  0  0  0  0  0
   10.5149   -4.5510   22.2991 C   0  0  0  0  0  0  0  0  0  0  0  0
   10.6616   -5.0940   20.9939 O   0  0  0  0  0  0  0  0  0  0  0  0
   15.0868   -6.7989   21.9071 O   0  0  0  0  0  0  0  0  0  0  0  0
   14.9338   -7.7060   22.9894 C   0  0  0  0  0  0  0  0  0  0  0  0
   17.5606   -9.7735   12.8975 O   0  0  0  0  0  0  0  0  0  0  0  0
   18.6522   -9.2096   12.1843 C   0  0  0  0  0  0  0  0  0  0  0  0
   18.3350   -9.1769   10.7325 C   0  0  0  0  0  0  0  0  0  0  0  0
   17.1935   -9.8143   10.2558 C   0  0  0  0  0  0  0  0  0  0  0  0
   16.9039   -9.7445    8.8939 C   0  0  0  0  0  0  0  0  0  0  0  0
   15.8713  -10.3249    8.4590 O   0  0  0  0  0  0  0  0  0  0  0  0
   17.7312   -9.0528    8.0499 N   0  0  0  0  0  0  0  0  0  0  0  0
   17.4460   -8.9842    6.7151 C   0  0  0  0  0  0  0  0  0  0  0  0
   18.2772   -8.2808    5.8412 C   0  0  0  0  0  0  0  0  0  0  0  0
   19.4095   -7.6419    6.3425 C   0  0  0  0  0  0  0  0  0  0  0  0
   20.3045   -6.8864    5.4281 C   0  0  0  0  0  0  0  0  0  0  0  0
   19.7000   -7.7112    7.7036 C   0  0  0  0  0  0  0  0  0  0  0  0
   18.8495   -8.4240    8.5521 C   0  0  0  0  0  0  0  0  0  0  0  0
   19.1341   -8.4897    9.8785 N   0  0  0  0  0  0  0  0  0  0  0  0
 20 21  1  0  0  0
 21 14  1  0  0  0
 14 15  2  0  0  0
 15 16  1  0  0  0
 16 22  1  0  0  0
 16 17  2  0  0  0
 22 23  1  0  0  0
 17  8  1  0  0  0
 17 18  1  0  0  0
  8  9  1  0  0  0
  9 10  2  0  0  0
  9 11  1  0  0  0
 11  1  1  0  0  0
  1  2  2  0  0  0
  2  3  1  0  0  0
  3  4  2  0  0  0
  4  5  1  0  0  0
  4  6  1  0  0  0
  6 24  1  0  0  0
  6  7  2  0  0  0
 24 25  1  0  0  0
 25 26  1  0  0  0
 26 27  2  0  0  0
 27 28  1  0  0  0
 28 29  2  0  0  0
 28 30  1  0  0  0
 30 31  1  0  0  0
 31 32  2  0  0  0
 32 33  1  0  0  0
 33 34  1  0  0  0
 33 35  2  0  0  0
 35 36  1  0  0  0
 36 37  2  0  0  0
 36 30  1  0  0  0
 37 26  1  0  0  0
  7  1  1  0  0  0
 18 19  2  0  0  0
 19 14  1  0  0  0
  8 12  1  0  0  0
 11 13  1  0  0  0
M  END
>  <minimizedAffinity>
-8.74905

>  <minimizedRMSD>
2.20324

$$$$
ChemDiv-C679-5970 CHEMBL1315554 MCULE-4082113692 MolPort-007-656-194 PubChem-16009633 ZINC000008603856


 34 38  0  0  0  0  0  0  0  0999 V2000
   17.0153   -9.6229   14.2892 C   0  0  0  0  0  0  0  0  0  0  0  0
   17.8444  -10.7373   14.4924 C   0  0  0  0  0  0  0  0  0  0  0  0
   18.1059  -11.1921   15.7870 C   0  0  0  0  0  0  0  0  0  0  0  0
   17.5417  -10.5370   16.8847 C   0  0  0  0  0  0  0  0  0  0  0  0
   16.7135   -9.4255   16.6973 C   0  0  0  0  0  0  0  0  0  0  0  0
   16.4550   -8.9743   15.3941 C   0  0  0  0  0  0  0  0  0  0  0  0
   16.1538   -8.7807   17.8494 N   0  0  0  0  0  0  0  0  0  0  0  0
   15.0449   -7.8685   17.8730 C   0  0  0  0  0  0  0  0  0  0  0  0
   14.4460   -7.5580   16.8074 O   0  0  0  0  0  0  0  0  0  0  0  0
   16.5742   -8.9849   18.7159 H   0  0  0  0  0  0  0  0  0  0  0  0
   14.6022   -7.2914   19.1545 C   0  0  0  0  0  0  0  0  0  0  0  0
   13.3614   -6.6456   19.2525 C   0  0  0  0  0  0  0  0  0  0  0  0
   12.9434   -6.0995   20.4688 C   0  0  0  0  0  0  0  0  0  0  0  0
   13.7624   -6.1948   21.5966 C   0  0  0  0  0  0  0  0  0  0  0  0
   15.0027   -6.8354   21.5163 C   0  0  0  0  0  0  0  0  0  0  0  0
   15.4178   -7.3826   20.2912 C   0  0  0  0  0  0  0  0  0  0  0  0
   15.7994   -6.9144   22.6617 O   0  0  0  0  0  0  0  0  0  0  0  0
   15.2937   -7.3379   23.9206 C   0  0  0  0  0  0  0  0  0  0  0  0
   16.7336   -9.1421   13.0081 O   0  0  0  0  0  0  0  0  0  0  0  0
   16.1027   -9.9357   12.0118 C   0  0  0  0  0  0  0  0  0  0  0  0
   17.8041   -9.0624    8.2422 N   0  0  0  0  0  0  0  0  0  0  0  0
   18.4925   -8.6348    7.1415 C   0  0  0  0  0  0  0  0  0  0  0  0
   18.2143   -9.0729    5.7299 C   0  0  0  0  0  0  0  0  0  0  0  0
   18.7829   -8.0666    4.7260 C   0  0  0  0  0  0  0  0  0  0  0  0
   20.2551   -7.7838    5.0337 C   0  0  0  0  0  0  0  0  0  0  0  0
   20.4249   -7.1233    6.4077 C   0  0  0  0  0  0  0  0  0  0  0  0
   19.5474   -7.7702    7.4359 C   0  0  0  0  0  0  0  0  0  0  0  0
   19.6032   -7.4926    9.0995 S   0  0  0  0  0  0  0  0  0  0  0  0
   18.2991   -8.5170    9.3808 C   0  0  0  0  0  0  0  0  0  0  0  0
   17.7670   -8.7938   10.5962 N   0  0  0  0  0  0  0  0  0  0  0  0
   16.7111   -9.6476   10.6863 C   0  0  0  0  0  0  0  0  0  0  0  0
   16.1677  -10.2230    9.5299 C   0  0  0  0  0  0  0  0  0  0  0  0
   16.7379   -9.9168    8.2902 C   0  0  0  0  0  0  0  0  0  0  0  0
   16.2592  -10.4294    7.2436 O   0  0  0  0  0  0  0  0  0  0  0  0
 21 22  1  0  0  0
 22 23  1  0  0  0
 23 24  1  0  0  0
 24 25  1  0  0  0
 25 26  1  0  0  0
 26 27  1  0  0  0
 27 28  1  0  0  0
 28 29  1  0  0  0
 29 30  2  0  0  0
 30 31  1  0  0  0
 31 20  1  0  0  0
 20 19  1  0  0  0
 19  1  1  0  0  0
  1  2  2  0  0  0
  2  3  1  0  0  0
  3  4  2  0  0  0
  4  5  1  0  0  0
  5  6  2  0  0  0
  5  7  1  0  0  0
  7  8  1  0  0  0
  8  9  2  0  0  0
  8 11  1  0  0  0
 11 12  2  0  0  0
 12 13  1  0  0  0
 13 14  2  0  0  0
 14 15  1  0  0  0
 15 17  1  0  0  0
 17 18  1  0  0  0
 15 16  2  0  0  0
 31 32  2  0  0  0
 32 33  1  0  0  0
 33 34  2  0  0  0
 29 21  1  0  0  0
  6  1  1  0  0  0
 16 11  1  0  0  0
 33 21  1  0  0  0
 27 22  2  0  0  0
  7 10  1  0  0  0
M  END
>  <minimizedAffinity>
-8.73505

>  <minimizedRMSD>
1.24629

$$$$
ChemDiv-G756-1007 MCULE-2711996433 MolPort-010-744-703 PubChem-50802593 ZINC000033268624 ZINC33268624


 33 36  0  0  0  0  0  0  0  0999 V2000
   17.3164   -9.9372   14.6510 C   0  0  0  0  0  0  0  0  0  0  0  0
   17.9102  -11.1260   15.1075 C   0  0  0  0  0  0  0  0  0  0  0  0
   17.8878  -11.4486   16.4678 C   0  0  0  0  0  0  0  0  0  0  0  0
   17.2733  -10.5868   17.3789 C   0  0  0  0  0  0  0  0  0  0  0  0
   16.6770   -9.4001   16.9381 C   0  0  0  0  0  0  0  0  0  0  0  0
   16.7047   -9.0801   15.5705 C   0  0  0  0  0  0  0  0  0  0  0  0
   16.0602   -8.5421   17.9055 N   0  0  0  0  0  0  0  0  0  0  0  0
   14.8312   -7.8199   17.7543 C   0  0  0  0  0  0  0  0  0  0  0  0
   14.1363   -7.9238   16.7082 O   0  0  0  0  0  0  0  0  0  0  0  0
   16.5297   -8.4375   18.7645 H   0  0  0  0  0  0  0  0  0  0  0  0
   14.3393   -6.9697   18.8754 C   0  0  0  0  0  0  0  0  0  0  0  0
   14.3030   -7.7222   20.0822 O   0  0  0  0  0  0  0  0  0  0  0  0
   15.0829   -7.4098   21.2025 C   0  0  0  0  0  0  0  0  0  0  0  0
   16.3082   -6.7299   21.0826 C   0  0  0  0  0  0  0  0  0  0  0  0
   17.0633   -6.4282   22.2201 C   0  0  0  0  0  0  0  0  0  0  0  0
   16.5998   -6.8014   23.4842 C   0  0  0  0  0  0  0  0  0  0  0  0
   17.5460   -6.4255   24.9089 Cl  0  0  0  0  0  0  0  0  0  0  0  0
   15.3805   -7.4756   23.6108 C   0  0  0  0  0  0  0  0  0  0  0  0
   14.6245   -7.7775   22.4725 C   0  0  0  0  0  0  0  0  0  0  0  0
   17.3211   -9.5862   13.2980 O   0  0  0  0  0  0  0  0  0  0  0  0
   18.4839   -9.6837   12.4857 C   0  0  0  0  0  0  0  0  0  0  0  0
   20.1586   -7.0224    5.8603 C   0  0  0  0  0  0  0  0  0  0  0  0
   19.2185   -7.7486    6.7505 C   0  0  0  0  0  0  0  0  0  0  0  0
   19.5384   -7.9446    8.0936 C   0  0  0  0  0  0  0  0  0  0  0  0
   18.6415   -8.6268    8.9202 C   0  0  0  0  0  0  0  0  0  0  0  0
   18.9576   -8.8242   10.2266 N   0  0  0  0  0  0  0  0  0  0  0  0
   18.1165   -9.4885   11.0581 C   0  0  0  0  0  0  0  0  0  0  0  0
   16.8971   -9.9618   10.5809 C   0  0  0  0  0  0  0  0  0  0  0  0
   16.5722   -9.7514    9.2412 C   0  0  0  0  0  0  0  0  0  0  0  0
   15.4620  -10.1709    8.8080 O   0  0  0  0  0  0  0  0  0  0  0  0
   17.4475   -9.0953    8.4166 N   0  0  0  0  0  0  0  0  0  0  0  0
   17.1351   -8.9055    7.0989 C   0  0  0  0  0  0  0  0  0  0  0  0
   18.0130   -8.2332    6.2458 C   0  0  0  0  0  0  0  0  0  0  0  0
 22 23  1  0  0  0
 23 24  2  0  0  0
 24 25  1  0  0  0
 25 26  2  0  0  0
 26 27  1  0  0  0
 27 21  1  0  0  0
 21 20  1  0  0  0
 20  1  1  0  0  0
  1  2  2  0  0  0
  2  3  1  0  0  0
  3  4  2  0  0  0
  4  5  1  0  0  0
  5  7  1  0  0  0
  7  8  1  0  0  0
  8  9  2  0  0  0
  8 11  1  0  0  0
 11 12  1  0  0  0
 12 13  1  0  0  0
 13 14  2  0  0  0
 14 15  1  0  0  0
 15 16  2  0  0  0
 16 17  1  0  0  0
 16 18  1  0  0  0
 18 19  2  0  0  0
  5  6  2  0  0  0
 27 28  2  0  0  0
 28 29  1  0  0  0
 29 30  2  0  0  0
 29 31  1  0  0  0
 31 32  1  0  0  0
 32 33  2  0  0  0
 33 23  1  0  0  0
 31 25  1  0  0  0
  6  1  1  0  0  0
 19 13  1  0  0  0
  7 10  1  0  0  0
M  END
>  <minimizedAffinity>
-8.72925

>  <minimizedRMSD>
2.24154

$$$$
ChemDiv-C679-6218 MCULE-3982003795 MolPort-007-656-232 PubChem-20874383 ZINC000013368482 ZINC13368482


 32 35  0  0  0  0  0  0  0  0999 V2000
   17.4154  -10.2164   14.2113 C   0  0  0  0  0  0  0  0  0  0  0  0
   17.9243  -11.4954   14.4855 C   0  0  0  0  0  0  0  0  0  0  0  0
   17.9792  -11.9631   15.8006 C   0  0  0  0  0  0  0  0  0  0  0  0
   17.5250  -11.1574   16.8479 C   0  0  0  0  0  0  0  0  0  0  0  0
   17.0133   -9.8821   16.5892 C   0  0  0  0  0  0  0  0  0  0  0  0
   16.9632   -9.4173   15.2660 C   0  0  0  0  0  0  0  0  0  0  0  0
   16.5550   -9.0870   17.6907 N   0  0  0  0  0  0  0  0  0  0  0  0
   15.5285   -8.0852   17.6572 C   0  0  0  0  0  0  0  0  0  0  0  0
   14.9462   -7.7826   16.5822 O   0  0  0  0  0  0  0  0  0  0  0  0
   16.9896   -9.2447   18.5599 H   0  0  0  0  0  0  0  0  0  0  0  0
   15.1545   -7.3726   18.9124 C   0  0  0  0  0  0  0  0  0  0  0  0
   13.9896   -7.9564   19.4867 O   0  0  0  0  0  0  0  0  0  0  0  0
   12.6839   -7.4631   19.3388 C   0  0  0  0  0  0  0  0  0  0  0  0
   12.1974   -6.2987   19.9870 C   0  0  0  0  0  0  0  0  0  0  0  0
   13.0076   -5.5140   20.9613 C   0  0  0  0  0  0  0  0  0  0  0  0
   10.8805   -5.8828   19.7667 C   0  0  0  0  0  0  0  0  0  0  0  0
   10.0396   -6.6065   18.9201 C   0  0  0  0  0  0  0  0  0  0  0  0
   10.5082   -7.7612   18.2939 C   0  0  0  0  0  0  0  0  0  0  0  0
   11.8205   -8.1858   18.5069 C   0  0  0  0  0  0  0  0  0  0  0  0
   17.3475   -9.7173   12.9085 O   0  0  0  0  0  0  0  0  0  0  0  0
   18.4872   -9.2319   12.2109 C   0  0  0  0  0  0  0  0  0  0  0  0
   18.9294   -7.7496    5.0748 C   0  0  0  0  0  0  0  0  0  0  0  0
   18.6541   -8.1816    6.4698 C   0  0  0  0  0  0  0  0  0  0  0  0
   19.4327   -7.8457    7.5823 C   0  0  0  0  0  0  0  0  0  0  0  0
   18.7385   -8.4915    8.5878 C   0  0  0  0  0  0  0  0  0  0  0  0
   19.0272   -8.5163    9.9117 N   0  0  0  0  0  0  0  0  0  0  0  0
   18.2085   -9.2182   10.7509 C   0  0  0  0  0  0  0  0  0  0  0  0
   17.0737   -9.8877   10.2498 C   0  0  0  0  0  0  0  0  0  0  0  0
   16.8162   -9.8312    8.8749 C   0  0  0  0  0  0  0  0  0  0  0  0
   15.8162  -10.4120    8.3793 O   0  0  0  0  0  0  0  0  0  0  0  0
   17.6727   -9.1290    8.0961 N   0  0  0  0  0  0  0  0  0  0  0  0
   17.6295   -8.9346    6.8180 O   0  0  0  0  0  0  0  0  0  0  0  0
 22 23  1  0  0  0
 23 24  2  0  0  0
 24 25  1  0  0  0
 25 26  2  0  0  0
 26 27  1  0  0  0
 27 21  1  0  0  0
 27 28  2  0  0  0
 21 20  1  0  0  0
 20  1  1  0  0  0
  1  2  2  0  0  0
  2  3  1  0  0  0
  3  4  2  0  0  0
  4  5  1  0  0  0
  5  7  1  0  0  0
  5  6  2  0  0  0
  7  8  1  0  0  0
  8  9  2  0  0  0
  8 11  1  0  0  0
 11 12  1  0  0  0
 12 13  1  0  0  0
 13 14  2  0  0  0
 14 15  1  0  0  0
 14 16  1  0  0  0
 16 17  2  0  0  0
 17 18  1  0  0  0
 18 19  2  0  0  0
 19 13  1  0  0  0
  6  1  1  0  0  0
 28 29  1  0  0  0
 29 30  2  0  0  0
 29 31  1  0  0  0
 31 32  1  0  0  0
 31 25  1  0  0  0
 32 23  1  0  0  0
  7 10  1  0  0  0
M  END
>  <minimizedAffinity>
-8.72641

>  <minimizedRMSD>
1.44637

$$$$
ChemDiv-G756-1270 MCULE-4416202233 MolPort-007-879-702 PubChem-46356478 ZINC000033068090 ZINC33068090


 37 40  0  0  0  0  0  0  0  0999 V2000
   17.4131   -9.6057   16.5394 C   0  0  0  0  0  0  0  0  0  0  0  0
   17.8255  -10.9028   16.8570 C   0  0  0  0  0  0  0  0  0  0  0  0
   18.1505  -11.8091   15.8447 C   0  0  0  0  0  0  0  0  0  0  0  0
   18.0660  -11.4266   14.5031 C   0  0  0  0  0  0  0  0  0  0  0  0
   18.4190  -12.4139   13.4450 C   0  0  0  0  0  0  0  0  0  0  0  0
   17.6530  -10.1272   14.1671 C   0  0  0  0  0  0  0  0  0  0  0  0
   17.3287   -9.2245   15.1927 C   0  0  0  0  0  0  0  0  0  0  0  0
   15.6512   -7.3989   19.1271 N   0  0  0  0  0  0  0  0  0  0  0  0
   15.7749   -8.3125   18.0291 C   0  0  0  0  0  0  0  0  0  0  0  0
   14.7512   -8.7625   17.4473 O   0  0  0  0  0  0  0  0  0  0  0  0
   17.0871   -8.7039   17.6060 N   0  0  0  0  0  0  0  0  0  0  0  0
   16.4926   -7.0898   19.5341 H   0  0  0  0  0  0  0  0  0  0  0  0
   17.8441   -8.3128   18.0992 H   0  0  0  0  0  0  0  0  0  0  0  0
   12.0344   -6.4755   19.5344 C   0  0  0  0  0  0  0  0  0  0  0  0
   12.0501   -5.8816   20.7951 C   0  0  0  0  0  0  0  0  0  0  0  0
   13.2434   -5.7840   21.5107 C   0  0  0  0  0  0  0  0  0  0  0  0
   14.4439   -6.2757   20.9851 C   0  0  0  0  0  0  0  0  0  0  0  0
   14.4394   -6.8830   19.7010 C   0  0  0  0  0  0  0  0  0  0  0  0
   13.2286   -6.9720   18.9960 C   0  0  0  0  0  0  0  0  0  0  0  0
   10.6420   -7.4155   17.7192 C   0  0  0  0  0  0  0  0  0  0  0  0
   10.8251   -6.5601   18.8393 O   0  0  0  0  0  0  0  0  0  0  0  0
   15.5883   -6.1280   21.7854 O   0  0  0  0  0  0  0  0  0  0  0  0
   15.8528   -6.8471   22.9812 C   0  0  0  0  0  0  0  0  0  0  0  0
   17.5703   -9.7521   12.8214 O   0  0  0  0  0  0  0  0  0  0  0  0
   18.6612   -9.1750   12.1156 C   0  0  0  0  0  0  0  0  0  0  0  0
   18.3395   -9.1129   10.6656 C   0  0  0  0  0  0  0  0  0  0  0  0
   17.2275   -9.7872   10.1702 C   0  0  0  0  0  0  0  0  0  0  0  0
   16.9640   -9.7344    8.8024 C   0  0  0  0  0  0  0  0  0  0  0  0
   15.9539  -10.3414    8.3516 O   0  0  0  0  0  0  0  0  0  0  0  0
   17.7946   -9.0340    7.9688 N   0  0  0  0  0  0  0  0  0  0  0  0
   17.5352   -8.9831    6.6280 C   0  0  0  0  0  0  0  0  0  0  0  0
   18.3732   -8.2760    5.7639 C   0  0  0  0  0  0  0  0  0  0  0  0
   19.4866   -7.6165    6.2808 C   0  0  0  0  0  0  0  0  0  0  0  0
   20.3900   -6.8593    5.3761 C   0  0  0  0  0  0  0  0  0  0  0  0
   19.7511   -7.6686    7.6480 C   0  0  0  0  0  0  0  0  0  0  0  0
   18.8932   -8.3838    8.4868 C   0  0  0  0  0  0  0  0  0  0  0  0
   19.1527   -8.4332    9.8189 N   0  0  0  0  0  0  0  0  0  0  0  0
 20 21  1  0  0  0
 21 14  1  0  0  0
 14 15  2  0  0  0
 15 16  1  0  0  0
 16 17  2  0  0  0
 17 22  1  0  0  0
 17 18  1  0  0  0
 22 23  1  0  0  0
 18  8  1  0  0  0
 18 19  2  0  0  0
  8  9  1  0  0  0
  9 10  2  0  0  0
  9 11  1  0  0  0
 11  1  1  0  0  0
  1  2  2  0  0  0
  2  3  1  0  0  0
  3  4  2  0  0  0
  4  5  1  0  0  0
  4  6  1  0  0  0
  6 24  1  0  0  0
  6  7  2  0  0  0
 24 25  1  0  0  0
 25 26  1  0  0  0
 26 27  2  0  0  0
 27 28  1  0  0  0
 28 29  2  0  0  0
 28 30  1  0  0  0
 30 31  1  0  0  0
 31 32  2  0  0  0
 32 33  1  0  0  0
 33 34  1  0  0  0
 33 35  2  0  0  0
 35 36  1  0  0  0
 36 37  2  0  0  0
 36 30  1  0  0  0
 37 26  1  0  0  0
  7  1  1  0  0  0
 19 14  1  0  0  0
  8 12  1  0  0  0
 11 13  1  0  0  0
M  END
>  <minimizedAffinity>
-8.72117

>  <minimizedRMSD>
1.76063

$$$$
ChemDiv-D439-4110 MCULE-8051972961 MolPort-007-706-759 PubChem-46268341 ZINC000021797052 ZINC21797052


 32 35  0  0  0  0  0  0  0  0999 V2000
   16.9675   -9.8218   14.2502 C   0  0  0  0  0  0  0  0  0  0  0  0
   16.4050   -9.1739   15.3560 C   0  0  0  0  0  0  0  0  0  0  0  0
   16.7196   -9.5585   16.6657 C   0  0  0  0  0  0  0  0  0  0  0  0
   17.6158  -10.6081   16.8703 C   0  0  0  0  0  0  0  0  0  0  0  0
   18.1933  -11.2641   15.7827 C   0  0  0  0  0  0  0  0  0  0  0  0
   17.8819  -10.8847   14.4735 C   0  0  0  0  0  0  0  0  0  0  0  0
   18.5656  -11.6231   13.3744 C   0  0  0  0  0  0  0  0  0  0  0  0
   16.1486   -8.9047   17.8076 N   0  0  0  0  0  0  0  0  0  0  0  0
   15.1116   -7.9112   17.8037 C   0  0  0  0  0  0  0  0  0  0  0  0
   14.5979   -7.5240   16.7187 O   0  0  0  0  0  0  0  0  0  0  0  0
   16.5056   -9.1646   18.6876 H   0  0  0  0  0  0  0  0  0  0  0  0
   14.6430   -7.3407   19.0790 C   0  0  0  0  0  0  0  0  0  0  0  0
   13.4049   -6.6840   19.1510 C   0  0  0  0  0  0  0  0  0  0  0  0
   12.9590   -6.1466   20.3622 C   0  0  0  0  0  0  0  0  0  0  0  0
   13.7478   -6.2624   21.5101 C   0  0  0  0  0  0  0  0  0  0  0  0
   14.9827   -6.9136   21.4470 C   0  0  0  0  0  0  0  0  0  0  0  0
   15.4285   -7.4514   20.2361 C   0  0  0  0  0  0  0  0  0  0  0  0
   16.5802   -9.3556   12.9840 O   0  0  0  0  0  0  0  0  0  0  0  0
   16.2659  -10.1735   11.8657 C   0  0  0  0  0  0  0  0  0  0  0  0
   18.9669   -8.0097    7.6015 N   0  0  0  0  0  0  0  0  0  0  0  0
   20.0191   -7.5282    8.3097 C   0  0  0  0  0  0  0  0  0  0  0  0
   19.8956   -7.8127    9.6353 N   0  0  0  0  0  0  0  0  0  0  0  0
   18.7254   -8.4800    9.6705 C   0  0  0  0  0  0  0  0  0  0  0  0
   18.1382   -8.9860   10.7823 N   0  0  0  0  0  0  0  0  0  0  0  0
   16.9475   -9.6435   10.6556 C   0  0  0  0  0  0  0  0  0  0  0  0
   16.3350   -9.7798    9.3928 C   0  0  0  0  0  0  0  0  0  0  0  0
   16.9787   -9.2404    8.2721 C   0  0  0  0  0  0  0  0  0  0  0  0
   16.4663   -9.3468    7.1267 O   0  0  0  0  0  0  0  0  0  0  0  0
   18.1649   -8.6036    8.4657 N   0  0  0  0  0  0  0  0  0  0  0  0
   19.5461   -6.7349    5.5932 C   0  0  0  0  0  0  0  0  0  0  0  0
   18.7483   -7.8941    6.1611 C   0  0  0  0  0  0  0  0  0  0  0  0
   19.1330   -9.1833    5.4594 C   0  0  0  0  0  0  0  0  0  0  0  0
 30 31  1  0  0  0
 31 32  1  0  0  0
 31 20  1  0  0  0
 20 21  1  0  0  0
 21 22  2  0  0  0
 22 23  1  0  0  0
 23 24  2  0  0  0
 24 25  1  0  0  0
 25 19  1  0  0  0
 25 26  2  0  0  0
 19 18  1  0  0  0
 18  1  1  0  0  0
  1  2  2  0  0  0
  2  3  1  0  0  0
  3  8  1  0  0  0
  3  4  2  0  0  0
  8  9  1  0  0  0
  9 10  2  0  0  0
  9 12  1  0  0  0
 12 13  2  0  0  0
 13 14  1  0  0  0
 14 15  2  0  0  0
 15 16  1  0  0  0
 16 17  2  0  0  0
 17 12  1  0  0  0
  4  5  1  0  0  0
  5  6  2  0  0  0
  6  7  1  0  0  0
  6  1  1  0  0  0
 26 27  1  0  0  0
 27 28  2  0  0  0
 27 29  1  0  0  0
 29 20  1  0  0  0
 29 23  1  0  0  0
  8 11  1  0  0  0
M  END
>  <minimizedAffinity>
-8.71959

>  <minimizedRMSD>
1.38061

$$$$
ChemDiv-D439-2910 MCULE-9177357855 MolPort-010-713-989 PubChem-50748724 ZINC000021796902 ZINC21796902


 34 37  0  0  0  0  0  0  0  0999 V2000
   16.8466   -9.4459   13.9197 C   0  0  0  0  0  0  0  0  0  0  0  0
   18.1116  -10.0542   13.9013 C   0  0  0  0  0  0  0  0  0  0  0  0
   18.8126  -10.2546   15.0928 C   0  0  0  0  0  0  0  0  0  0  0  0
   18.2546   -9.8494   16.3080 C   0  0  0  0  0  0  0  0  0  0  0  0
   16.9949   -9.2423   16.3415 C   0  0  0  0  0  0  0  0  0  0  0  0
   16.2965   -9.0437   15.1408 C   0  0  0  0  0  0  0  0  0  0  0  0
   16.4565   -8.8401   17.6084 N   0  0  0  0  0  0  0  0  0  0  0  0
   15.3443   -7.9628   17.8273 C   0  0  0  0  0  0  0  0  0  0  0  0
   14.7025   -7.4660   16.8643 O   0  0  0  0  0  0  0  0  0  0  0  0
   16.8961   -9.2042   18.4105 H   0  0  0  0  0  0  0  0  0  0  0  0
   14.9157   -7.6657   19.2190 C   0  0  0  0  0  0  0  0  0  0  0  0
   13.4971   -7.7082   19.2994 O   0  0  0  0  0  0  0  0  0  0  0  0
   12.7319   -6.6149   19.7133 C   0  0  0  0  0  0  0  0  0  0  0  0
   13.2739   -5.5979   20.5169 C   0  0  0  0  0  0  0  0  0  0  0  0
   12.4818   -4.5170   20.9147 C   0  0  0  0  0  0  0  0  0  0  0  0
   13.0097   -3.5395   21.6895 F   0  0  0  0  0  0  0  0  0  0  0  0
   11.1451   -4.4452   20.5128 C   0  0  0  0  0  0  0  0  0  0  0  0
   10.6008   -5.4542   19.7133 C   0  0  0  0  0  0  0  0  0  0  0  0
   11.3929   -6.5356   19.3153 C   0  0  0  0  0  0  0  0  0  0  0  0
   16.1191   -9.2305   12.7465 O   0  0  0  0  0  0  0  0  0  0  0  0
   16.0195  -10.2039   11.7153 C   0  0  0  0  0  0  0  0  0  0  0  0
   18.8536   -8.2119    7.4533 N   0  0  0  0  0  0  0  0  0  0  0  0
   19.6752   -7.4071    8.1722 C   0  0  0  0  0  0  0  0  0  0  0  0
   19.4102   -7.4934    9.5048 N   0  0  0  0  0  0  0  0  0  0  0  0
   18.3993   -8.3835    9.5326 C   0  0  0  0  0  0  0  0  0  0  0  0
   17.7614   -8.8199   10.6461 N   0  0  0  0  0  0  0  0  0  0  0  0
   16.7525   -9.7313   10.5114 C   0  0  0  0  0  0  0  0  0  0  0  0
   16.3727  -10.1959    9.2358 C   0  0  0  0  0  0  0  0  0  0  0  0
   17.0598   -9.7163    8.1139 C   0  0  0  0  0  0  0  0  0  0  0  0
   16.7518  -10.1103    6.9582 O   0  0  0  0  0  0  0  0  0  0  0  0
   18.0600   -8.8174    8.3173 N   0  0  0  0  0  0  0  0  0  0  0  0
   20.1534   -7.9260    5.3986 C   0  0  0  0  0  0  0  0  0  0  0  0
   18.8389   -8.3839    6.0023 C   0  0  0  0  0  0  0  0  0  0  0  0
   17.6871   -7.6118    5.3862 C   0  0  0  0  0  0  0  0  0  0  0  0
 32 33  1  0  0  0
 33 34  1  0  0  0
 33 22  1  0  0  0
 22 23  1  0  0  0
 23 24  2  0  0  0
 24 25  1  0  0  0
 25 26  2  0  0  0
 26 27  1  0  0  0
 27 21  1  0  0  0
 27 28  2  0  0  0
 21 20  1  0  0  0
 20  1  1  0  0  0
  1  2  2  0  0  0
  2  3  1  0  0  0
  3  4  2  0  0  0
  4  5  1  0  0  0
  5  7  1  0  0  0
  5  6  2  0  0  0
  7  8  1  0  0  0
  8  9  2  0  0  0
  8 11  1  0  0  0
 11 12  1  0  0  0
 12 13  1  0  0  0
 13 14  2  0  0  0
 14 15  1  0  0  0
 15 16  1  0  0  0
 15 17  2  0  0  0
 17 18  1  0  0  0
 18 19  2  0  0  0
 19 13  1  0  0  0
  6  1  1  0  0  0
 28 29  1  0  0  0
 29 30  2  0  0  0
 29 31  1  0  0  0
 31 22  1  0  0  0
 31 25  1  0  0  0
  7 10  1  0  0  0
M  END
>  <minimizedAffinity>
-8.70867

>  <minimizedRMSD>
1.27555

$$$$
ChemDiv-D439-4111 MCULE-2741837359 MolPort-007-706-760 PubChem-46268342 ZINC000021797057 ZINC21797057


 33 36  0  0  0  0  0  0  0  0999 V2000
   17.0558   -9.7575   14.2470 C   0  0  0  0  0  0  0  0  0  0  0  0
   16.4738   -9.1239   15.3511 C   0  0  0  0  0  0  0  0  0  0  0  0
   16.7353   -9.5500   16.6597 C   0  0  0  0  0  0  0  0  0  0  0  0
   17.5944  -10.6295   16.8656 C   0  0  0  0  0  0  0  0  0  0  0  0
   18.1857  -11.2763   15.7801 C   0  0  0  0  0  0  0  0  0  0  0  0
   17.9286  -10.8552   14.4718 C   0  0  0  0  0  0  0  0  0  0  0  0
   18.6043  -11.6056   13.3762 C   0  0  0  0  0  0  0  0  0  0  0  0
   16.1461   -8.9096   17.7996 N   0  0  0  0  0  0  0  0  0  0  0  0
   15.1050   -7.9204   17.7899 C   0  0  0  0  0  0  0  0  0  0  0  0
   14.6067   -7.5233   16.7015 O   0  0  0  0  0  0  0  0  0  0  0  0
   16.4918   -9.1763   18.6819 H   0  0  0  0  0  0  0  0  0  0  0  0
   14.6146   -7.3644   19.0635 C   0  0  0  0  0  0  0  0  0  0  0  0
   13.4033   -6.6578   19.1108 C   0  0  0  0  0  0  0  0  0  0  0  0
   12.9390   -6.1305   20.3195 C   0  0  0  0  0  0  0  0  0  0  0  0
   13.6826   -6.3057   21.4896 C   0  0  0  0  0  0  0  0  0  0  0  0
   13.2329   -5.7945   22.6606 F   0  0  0  0  0  0  0  0  0  0  0  0
   14.8900   -7.0080   21.4517 C   0  0  0  0  0  0  0  0  0  0  0  0
   15.3542   -7.5353   20.2430 C   0  0  0  0  0  0  0  0  0  0  0  0
   16.7233   -9.2467   12.9820 O   0  0  0  0  0  0  0  0  0  0  0  0
   16.1995  -10.0014   11.8986 C   0  0  0  0  0  0  0  0  0  0  0  0
   18.8382   -8.2604    7.4077 N   0  0  0  0  0  0  0  0  0  0  0  0
   19.7232   -7.4551    8.0467 C   0  0  0  0  0  0  0  0  0  0  0  0
   19.5338   -7.4835    9.3946 N   0  0  0  0  0  0  0  0  0  0  0  0
   18.5008   -8.3400    9.5147 C   0  0  0  0  0  0  0  0  0  0  0  0
   17.9162   -8.7142   10.6789 N   0  0  0  0  0  0  0  0  0  0  0  0
   16.8751   -9.5978   10.6376 C   0  0  0  0  0  0  0  0  0  0  0  0
   16.4085  -10.0977    9.4050 C   0  0  0  0  0  0  0  0  0  0  0  0
   17.0428   -9.6822    8.2278 C   0  0  0  0  0  0  0  0  0  0  0  0
   16.6569  -10.1092    7.1079 O   0  0  0  0  0  0  0  0  0  0  0  0
   18.0789   -8.8080    8.3386 N   0  0  0  0  0  0  0  0  0  0  0  0
   20.0393   -8.1351    5.2783 C   0  0  0  0  0  0  0  0  0  0  0  0
   18.7339   -8.4856    5.9678 C   0  0  0  0  0  0  0  0  0  0  0  0
   17.5999   -7.6654    5.3813 C   0  0  0  0  0  0  0  0  0  0  0  0
 31 32  1  0  0  0
 32 33  1  0  0  0
 32 21  1  0  0  0
 21 22  1  0  0  0
 22 23  2  0  0  0
 23 24  1  0  0  0
 24 25  2  0  0  0
 25 26  1  0  0  0
 26 20  1  0  0  0
 26 27  2  0  0  0
 20 19  1  0  0  0
 19  1  1  0  0  0
  1  2  2  0  0  0
  2  3  1  0  0  0
  3  8  1  0  0  0
  3  4  2  0  0  0
  8  9  1  0  0  0
  9 10  2  0  0  0
  9 12  1  0  0  0
 12 13  2  0  0  0
 13 14  1  0  0  0
 14 15  2  0  0  0
 15 16  1  0  0  0
 15 17  1  0  0  0
 17 18  2  0  0  0
 18 12  1  0  0  0
  4  5  1  0  0  0
  5  6  2  0  0  0
  6  7  1  0  0  0
  6  1  1  0  0  0
 27 28  1  0  0  0
 28 29  2  0  0  0
 28 30  1  0  0  0
 30 21  1  0  0  0
 30 24  1  0  0  0
  8 11  1  0  0  0
M  END
>  <minimizedAffinity>
-8.69615

>  <minimizedRMSD>
1.35535

$$$$
ChemDiv-C679-5968 CHEMBL1314331 MCULE-8923947922 MolPort-007-656-192 PubChem-16009631 ZINC000008654527


 34 38  0  0  0  0  0  0  0  0999 V2000
   16.9583   -9.4384   14.2668 C   0  0  0  0  0  0  0  0  0  0  0  0
   17.9690  -10.3963   14.4451 C   0  0  0  0  0  0  0  0  0  0  0  0
   18.3658  -10.7682   15.7317 C   0  0  0  0  0  0  0  0  0  0  0  0
   17.7559  -10.1864   16.8463 C   0  0  0  0  0  0  0  0  0  0  0  0
   16.7470   -9.2314   16.6837 C   0  0  0  0  0  0  0  0  0  0  0  0
   16.3540   -8.8619   15.3883 C   0  0  0  0  0  0  0  0  0  0  0  0
   16.1479   -8.6556   17.8523 N   0  0  0  0  0  0  0  0  0  0  0  0
   14.9954   -7.7999   17.8972 C   0  0  0  0  0  0  0  0  0  0  0  0
   14.3842   -7.4902   16.8385 O   0  0  0  0  0  0  0  0  0  0  0  0
   16.5714   -8.8694   18.7150 H   0  0  0  0  0  0  0  0  0  0  0  0
   14.5209   -7.2814   19.1926 C   0  0  0  0  0  0  0  0  0  0  0  0
   15.2747   -7.4864   20.3567 C   0  0  0  0  0  0  0  0  0  0  0  0
   14.8267   -6.9945   21.5858 C   0  0  0  0  0  0  0  0  0  0  0  0
   13.6207   -6.2918   21.6683 C   0  0  0  0  0  0  0  0  0  0  0  0
   12.8637   -6.0844   20.5043 C   0  0  0  0  0  0  0  0  0  0  0  0
   13.3118   -6.5762   19.2756 C   0  0  0  0  0  0  0  0  0  0  0  0
   13.1999   -5.8132   22.9122 O   0  0  0  0  0  0  0  0  0  0  0  0
   11.9047   -5.2695   23.1274 C   0  0  0  0  0  0  0  0  0  0  0  0
   16.5388   -9.0430   12.9942 O   0  0  0  0  0  0  0  0  0  0  0  0
   16.0524   -9.9627   12.0257 C   0  0  0  0  0  0  0  0  0  0  0  0
   17.7853   -9.0762    8.2734 N   0  0  0  0  0  0  0  0  0  0  0  0
   18.4819   -8.6433    7.1799 C   0  0  0  0  0  0  0  0  0  0  0  0
   18.2134   -9.0741    5.7640 C   0  0  0  0  0  0  0  0  0  0  0  0
   18.7865   -8.0610    4.7696 C   0  0  0  0  0  0  0  0  0  0  0  0
   20.2566   -7.7778    5.0881 C   0  0  0  0  0  0  0  0  0  0  0  0
   20.4172   -7.1257    6.4672 C   0  0  0  0  0  0  0  0  0  0  0  0
   19.5336   -7.7790    7.4859 C   0  0  0  0  0  0  0  0  0  0  0  0
   19.5761   -7.5083    9.1510 S   0  0  0  0  0  0  0  0  0  0  0  0
   18.2704   -8.5347    9.4179 C   0  0  0  0  0  0  0  0  0  0  0  0
   17.7280   -8.8156   10.6278 N   0  0  0  0  0  0  0  0  0  0  0  0
   16.6721   -9.6707   10.7062 C   0  0  0  0  0  0  0  0  0  0  0  0
   16.1386  -10.2422    9.5432 C   0  0  0  0  0  0  0  0  0  0  0  0
   16.7189   -9.9310    8.3093 C   0  0  0  0  0  0  0  0  0  0  0  0
   16.2481  -10.4390    7.2569 O   0  0  0  0  0  0  0  0  0  0  0  0
 21 22  1  0  0  0
 22 23  1  0  0  0
 23 24  1  0  0  0
 24 25  1  0  0  0
 25 26  1  0  0  0
 26 27  1  0  0  0
 27 28  1  0  0  0
 28 29  1  0  0  0
 29 30  2  0  0  0
 30 31  1  0  0  0
 31 20  1  0  0  0
 20 19  1  0  0  0
 19  1  1  0  0  0
  1  2  2  0  0  0
  2  3  1  0  0  0
  3  4  2  0  0  0
  4  5  1  0  0  0
  5  6  2  0  0  0
  5  7  1  0  0  0
  7  8  1  0  0  0
  8  9  2  0  0  0
  8 11  1  0  0  0
 11 12  2  0  0  0
 12 13  1  0  0  0
 13 14  2  0  0  0
 14 15  1  0  0  0
 15 16  2  0  0  0
 14 17  1  0  0  0
 17 18  1  0  0  0
 31 32  2  0  0  0
 32 33  1  0  0  0
 33 34  2  0  0  0
 29 21  1  0  0  0
  6  1  1  0  0  0
 16 11  1  0  0  0
 33 21  1  0  0  0
 27 22  2  0  0  0
  7 10  1  0  0  0
M  END
>  <minimizedAffinity>
-8.69505

>  <minimizedRMSD>
1.37995

$$$$
ChemDiv-D439-2919 MCULE-6539082616 MolPort-010-713-993 PubChem-50748732 ZINC000021796920 ZINC21796920


 32 35  0  0  0  0  0  0  0  0999 V2000
   16.8122   -9.4288   14.0258 C   0  0  0  0  0  0  0  0  0  0  0  0
   18.1019   -9.9827   14.0483 C   0  0  0  0  0  0  0  0  0  0  0  0
   18.7802  -10.1354   15.2598 C   0  0  0  0  0  0  0  0  0  0  0  0
   18.1750   -9.7362   16.4543 C   0  0  0  0  0  0  0  0  0  0  0  0
   16.8905   -9.1828   16.4470 C   0  0  0  0  0  0  0  0  0  0  0  0
   16.2149   -9.0324   15.2264 C   0  0  0  0  0  0  0  0  0  0  0  0
   16.3039   -8.7856   17.6939 N   0  0  0  0  0  0  0  0  0  0  0  0
   15.1702   -7.9234   17.8772 C   0  0  0  0  0  0  0  0  0  0  0  0
   14.5753   -7.4248   16.8831 O   0  0  0  0  0  0  0  0  0  0  0  0
   16.7226   -9.1417   18.5107 H   0  0  0  0  0  0  0  0  0  0  0  0
   14.6981   -7.6181   19.2394 C   0  0  0  0  0  0  0  0  0  0  0  0
   15.6144   -7.2933   20.2502 C   0  0  0  0  0  0  0  0  0  0  0  0
   15.1679   -7.0034   21.5428 C   0  0  0  0  0  0  0  0  0  0  0  0
   16.3208   -6.5995   22.7958 Cl  0  0  0  0  0  0  0  0  0  0  0  0
   13.8016   -7.0361   21.8343 C   0  0  0  0  0  0  0  0  0  0  0  0
   12.8817   -7.3589   20.8333 C   0  0  0  0  0  0  0  0  0  0  0  0
   13.3280   -7.6488   19.5406 C   0  0  0  0  0  0  0  0  0  0  0  0
   16.1060   -9.2622   12.8318 O   0  0  0  0  0  0  0  0  0  0  0  0
   16.0680  -10.2571   11.8172 C   0  0  0  0  0  0  0  0  0  0  0  0
   18.8854   -8.2238    7.5636 N   0  0  0  0  0  0  0  0  0  0  0  0
   19.7579   -7.4831    8.2917 C   0  0  0  0  0  0  0  0  0  0  0  0
   19.5211   -7.6100    9.6263 N   0  0  0  0  0  0  0  0  0  0  0  0
   18.4733   -8.4568    9.6459 C   0  0  0  0  0  0  0  0  0  0  0  0
   17.8434   -8.9086   10.7577 N   0  0  0  0  0  0  0  0  0  0  0  0
   16.7926   -9.7698   10.6141 C   0  0  0  0  0  0  0  0  0  0  0  0
   16.3629  -10.1678    9.3318 C   0  0  0  0  0  0  0  0  0  0  0  0
   17.0438   -9.6749    8.2119 C   0  0  0  0  0  0  0  0  0  0  0  0
   16.6920  -10.0103    7.0503 O   0  0  0  0  0  0  0  0  0  0  0  0
   18.0868   -8.8280    8.4238 N   0  0  0  0  0  0  0  0  0  0  0  0
   17.6906   -7.5025    5.5524 C   0  0  0  0  0  0  0  0  0  0  0  0
   18.8287   -8.3379    6.1081 C   0  0  0  0  0  0  0  0  0  0  0  0
   20.1436   -7.9027    5.4883 C   0  0  0  0  0  0  0  0  0  0  0  0
 30 31  1  0  0  0
 31 32  1  0  0  0
 31 20  1  0  0  0
 20 21  1  0  0  0
 21 22  2  0  0  0
 22 23  1  0  0  0
 23 24  2  0  0  0
 24 25  1  0  0  0
 25 19  1  0  0  0
 25 26  2  0  0  0
 19 18  1  0  0  0
 18  1  1  0  0  0
  1  2  2  0  0  0
  2  3  1  0  0  0
  3  4  2  0  0  0
  4  5  1  0  0  0
  5  7  1  0  0  0
  5  6  2  0  0  0
  7  8  1  0  0  0
  8  9  2  0  0  0
  8 11  1  0  0  0
 11 12  2  0  0  0
 12 13  1  0  0  0
 13 14  1  0  0  0
 13 15  2  0  0  0
 15 16  1  0  0  0
 16 17  2  0  0  0
 17 11  1  0  0  0
  6  1  1  0  0  0
 26 27  1  0  0  0
 27 28  2  0  0  0
 27 29  1  0  0  0
 29 20  1  0  0  0
 29 23  1  0  0  0
  7 10  1  0  0  0
M  END
>  <minimizedAffinity>
-8.69502

>  <minimizedRMSD>
1.58047

$$$$
ChemDiv-G357-2043 MCULE-3547468107 MolPort-007-847-754 PubChem-46343534 ZINC000021633342 ZINC21633342


 33 36  0  0  0  0  0  0  0  0999 V2000
   16.6052   -9.1561   16.9362 C   0  0  0  0  0  0  0  0  0  0  0  0
   16.6489   -8.4841   15.7058 C   0  0  0  0  0  0  0  0  0  0  0  0
   17.2295   -9.0912   14.5892 C   0  0  0  0  0  0  0  0  0  0  0  0
   17.7751  -10.3774   14.6875 C   0  0  0  0  0  0  0  0  0  0  0  0
   17.7332  -11.0482   15.9176 C   0  0  0  0  0  0  0  0  0  0  0  0
   17.1520  -10.4396   17.0336 C   0  0  0  0  0  0  0  0  0  0  0  0
   14.8521   -7.7333   18.1578 C   0  0  0  0  0  0  0  0  0  0  0  0
   14.1934   -7.4852   17.1112 O   0  0  0  0  0  0  0  0  0  0  0  0
   16.0227   -8.5638   18.1051 N   0  0  0  0  0  0  0  0  0  0  0  0
   16.4726   -8.7455   18.9617 H   0  0  0  0  0  0  0  0  0  0  0  0
   13.5793   -6.0863   21.9068 C   0  0  0  0  0  0  0  0  0  0  0  0
   14.7481   -6.8603   21.8330 C   0  0  0  0  0  0  0  0  0  0  0  0
   15.1618   -7.3973   20.6109 C   0  0  0  0  0  0  0  0  0  0  0  0
   14.4146   -7.1688   19.4469 C   0  0  0  0  0  0  0  0  0  0  0  0
   13.2470   -6.3962   19.5239 C   0  0  0  0  0  0  0  0  0  0  0  0
   12.8332   -5.8589   20.7463 C   0  0  0  0  0  0  0  0  0  0  0  0
   13.9192   -5.5659   24.3013 C   0  0  0  0  0  0  0  0  0  0  0  0
   13.1392   -5.5356   23.1138 O   0  0  0  0  0  0  0  0  0  0  0  0
   18.3836  -11.0130   13.5078 C   0  0  0  0  0  0  0  0  0  0  0  0
   18.8298  -12.1913   13.5836 O   0  0  0  0  0  0  0  0  0  0  0  0
   18.4623  -10.3064   12.3057 O   0  0  0  0  0  0  0  0  0  0  0  0
   17.3251   -9.6915   11.7181 C   0  0  0  0  0  0  0  0  0  0  0  0
   17.5966   -9.4166   10.2826 C   0  0  0  0  0  0  0  0  0  0  0  0
   16.7881  -10.0020    9.2956 C   0  0  0  0  0  0  0  0  0  0  0  0
   17.0401   -9.7007    7.9530 C   0  0  0  0  0  0  0  0  0  0  0  0
   16.3317  -10.2152    7.0467 O   0  0  0  0  0  0  0  0  0  0  0  0
   18.0552   -8.8462    7.6495 N   0  0  0  0  0  0  0  0  0  0  0  0
   18.4244   -8.4489    6.4026 C   0  0  0  0  0  0  0  0  0  0  0  0
   19.4981   -7.5614    6.4155 C   0  0  0  0  0  0  0  0  0  0  0  0
   20.1189   -6.9565    5.2085 C   0  0  0  0  0  0  0  0  0  0  0  0
   19.9918   -7.2686    8.0074 S   0  0  0  0  0  0  0  0  0  0  0  0
   18.8121   -8.2910    8.6224 C   0  0  0  0  0  0  0  0  0  0  0  0
   18.5962   -8.5592    9.9334 N   0  0  0  0  0  0  0  0  0  0  0  0
 17 18  1  0  0  0
 18 11  1  0  0  0
 11 12  2  0  0  0
 12 13  1  0  0  0
 13 14  2  0  0  0
 14 15  1  0  0  0
 14  7  1  0  0  0
 15 16  2  0  0  0
 16 11  1  0  0  0
  7  8  2  0  0  0
  7  9  1  0  0  0
  9  1  1  0  0  0
  1  2  2  0  0  0
  2  3  1  0  0  0
  3  4  2  0  0  0
  4  5  1  0  0  0
  4 19  1  0  0  0
  5  6  2  0  0  0
  6  1  1  0  0  0
 19 20  2  0  0  0
 19 21  1  0  0  0
 21 22  1  0  0  0
 22 23  1  0  0  0
 23 24  2  0  0  0
 24 25  1  0  0  0
 25 26  2  0  0  0
 25 27  1  0  0  0
 27 28  1  0  0  0
 28 29  2  0  0  0
 29 30  1  0  0  0
 29 31  1  0  0  0
 31 32  1  0  0  0
 32 33  2  0  0  0
 32 27  1  0  0  0
 33 23  1  0  0  0
  9 10  1  0  0  0
M  END
>  <minimizedAffinity>
-8.69488

>  <minimizedRMSD>
0.87110

$$$$
ChemDiv-G756-2767 MCULE-9115711588 MolPort-007-880-082 PubChem-46356793 ZINC000033068309 ZINC33068309


 34 37  0  0  0  0  0  0  0  0999 V2000
   16.3123   -8.8735   17.2001 C   0  0  0  0  0  0  0  0  0  0  0  0
   16.3749   -8.7310   15.8056 C   0  0  0  0  0  0  0  0  0  0  0  0
   16.9385   -9.7335   15.0101 C   0  0  0  0  0  0  0  0  0  0  0  0
   17.4408  -10.8948   15.6186 C   0  0  0  0  0  0  0  0  0  0  0  0
   17.3844  -11.0418   17.0063 C   0  0  0  0  0  0  0  0  0  0  0  0
   16.8239  -10.0323   17.7934 C   0  0  0  0  0  0  0  0  0  0  0  0
   14.3576   -7.5973   18.2578 C   0  0  0  0  0  0  0  0  0  0  0  0
   13.4687   -8.3213   17.7370 O   0  0  0  0  0  0  0  0  0  0  0  0
   15.7512   -7.8573   18.0419 N   0  0  0  0  0  0  0  0  0  0  0  0
   16.3880   -7.2788   18.5207 H   0  0  0  0  0  0  0  0  0  0  0  0
   13.9518   -6.4565   19.1224 C   0  0  0  0  0  0  0  0  0  0  0  0
   13.6993   -6.9220   20.4425 O   0  0  0  0  0  0  0  0  0  0  0  0
   13.7226   -5.8521   22.6178 C   0  0  0  0  0  0  0  0  0  0  0  0
   13.0583   -6.1435   21.4124 C   0  0  0  0  0  0  0  0  0  0  0  0
   11.7600   -5.6470   21.2022 C   0  0  0  0  0  0  0  0  0  0  0  0
   11.1287   -4.8745   22.1791 C   0  0  0  0  0  0  0  0  0  0  0  0
   11.7886   -4.5876   23.3752 C   0  0  0  0  0  0  0  0  0  0  0  0
   13.0798   -5.0735   23.5943 C   0  0  0  0  0  0  0  0  0  0  0  0
   15.0797   -7.7442   23.5041 C   0  0  0  0  0  0  0  0  0  0  0  0
   15.1106   -6.3731   22.8527 C   0  0  0  0  0  0  0  0  0  0  0  0
   15.9223   -5.4096   23.6999 C   0  0  0  0  0  0  0  0  0  0  0  0
   16.9905   -9.5489   13.6261 O   0  0  0  0  0  0  0  0  0  0  0  0
   18.0373  -10.0739   12.8202 C   0  0  0  0  0  0  0  0  0  0  0  0
   17.7971   -9.7178   11.3968 C   0  0  0  0  0  0  0  0  0  0  0  0
   16.6461  -10.1603   10.7515 C   0  0  0  0  0  0  0  0  0  0  0  0
   16.4360   -9.7905    9.4237 C   0  0  0  0  0  0  0  0  0  0  0  0
   15.3955  -10.1936    8.8347 O   0  0  0  0  0  0  0  0  0  0  0  0
   17.3486   -9.0000    8.7774 N   0  0  0  0  0  0  0  0  0  0  0  0
   17.1421   -8.6384    7.4755 C   0  0  0  0  0  0  0  0  0  0  0  0
   18.0593   -7.8284    6.8043 C   0  0  0  0  0  0  0  0  0  0  0  0
   19.1991   -7.3876    7.4740 C   0  0  0  0  0  0  0  0  0  0  0  0
   19.4103   -7.7572    8.8011 C   0  0  0  0  0  0  0  0  0  0  0  0
   18.4738   -8.5686    9.4455 C   0  0  0  0  0  0  0  0  0  0  0  0
   18.6817   -8.9275   10.7385 N   0  0  0  0  0  0  0  0  0  0  0  0
 19 20  1  0  0  0
 20 21  1  0  0  0
 20 13  1  0  0  0
 13 14  2  0  0  0
 14 12  1  0  0  0
 14 15  1  0  0  0
 12 11  1  0  0  0
 11  7  1  0  0  0
  7  8  2  0  0  0
  7  9  1  0  0  0
  9  1  1  0  0  0
  1  2  2  0  0  0
  2  3  1  0  0  0
  3 22  1  0  0  0
  3  4  2  0  0  0
 22 23  1  0  0  0
 23 24  1  0  0  0
 24 25  2  0  0  0
 25 26  1  0  0  0
 26 27  2  0  0  0
 26 28  1  0  0  0
 28 29  1  0  0  0
 29 30  2  0  0  0
 30 31  1  0  0  0
 31 32  2  0  0  0
 32 33  1  0  0  0
 33 34  2  0  0  0
 33 28  1  0  0  0
 34 24  1  0  0  0
  4  5  1  0  0  0
  5  6  2  0  0  0
  6  1  1  0  0  0
 15 16  2  0  0  0
 16 17  1  0  0  0
 17 18  2  0  0  0
 18 13  1  0  0  0
  9 10  1  0  0  0
M  END
>  <minimizedAffinity>
-8.68069

>  <minimizedRMSD>
1.93099

$$$$
ChemDiv-D439-4116 MCULE-7390596761 MolPort-007-706-764 PubChem-46268346 ZINC000021797066 ZINC21797066


 33 36  0  0  0  0  0  0  0  0999 V2000
   17.3710  -10.0675   14.2970 C   0  0  0  0  0  0  0  0  0  0  0  0
   16.7354   -9.3915   15.3450 C   0  0  0  0  0  0  0  0  0  0  0  0
   16.7785   -9.8755   16.6591 C   0  0  0  0  0  0  0  0  0  0  0  0
   17.4702  -11.0568   16.9274 C   0  0  0  0  0  0  0  0  0  0  0  0
   18.1117  -11.7468   15.8985 C   0  0  0  0  0  0  0  0  0  0  0  0
   18.0721  -11.2684   14.5853 C   0  0  0  0  0  0  0  0  0  0  0  0
   18.7865  -12.0710   13.5531 C   0  0  0  0  0  0  0  0  0  0  0  0
   16.1311   -9.1937   17.7419 N   0  0  0  0  0  0  0  0  0  0  0  0
   15.2712   -8.0475   17.6474 C   0  0  0  0  0  0  0  0  0  0  0  0
   15.0149   -7.5279   16.5271 O   0  0  0  0  0  0  0  0  0  0  0  0
   16.2932   -9.5490   18.6456 H   0  0  0  0  0  0  0  0  0  0  0  0
   14.6832   -7.4734   18.8707 C   0  0  0  0  0  0  0  0  0  0  0  0
   13.4725   -6.7665   18.8131 C   0  0  0  0  0  0  0  0  0  0  0  0
   12.9152   -6.2230   19.9745 C   0  0  0  0  0  0  0  0  0  0  0  0
   13.5642   -6.3825   21.2017 C   0  0  0  0  0  0  0  0  0  0  0  0
   12.9717   -5.8052   22.4362 C   0  0  0  0  0  0  0  0  0  0  0  0
   14.7704   -7.0852   21.2681 C   0  0  0  0  0  0  0  0  0  0  0  0
   15.3277   -7.6285   20.1068 C   0  0  0  0  0  0  0  0  0  0  0  0
   17.2618   -9.4924   13.0205 O   0  0  0  0  0  0  0  0  0  0  0  0
   16.4473   -9.9785   11.9634 C   0  0  0  0  0  0  0  0  0  0  0  0
   18.7987   -8.2972    7.2937 N   0  0  0  0  0  0  0  0  0  0  0  0
   19.7209   -7.4831    7.8654 C   0  0  0  0  0  0  0  0  0  0  0  0
   19.6154   -7.4926    9.2227 N   0  0  0  0  0  0  0  0  0  0  0  0
   18.5926   -8.3474    9.4185 C   0  0  0  0  0  0  0  0  0  0  0  0
   18.0822   -8.7062   10.6216 N   0  0  0  0  0  0  0  0  0  0  0  0
   17.0417   -9.5909   10.6574 C   0  0  0  0  0  0  0  0  0  0  0  0
   16.4997  -10.1076    9.4630 C   0  0  0  0  0  0  0  0  0  0  0  0
   17.0593   -9.7079    8.2432 C   0  0  0  0  0  0  0  0  0  0  0  0
   16.6051  -10.1504    7.1554 O   0  0  0  0  0  0  0  0  0  0  0  0
   18.0993   -8.8319    8.2774 N   0  0  0  0  0  0  0  0  0  0  0  0
   19.9123   -8.3643    5.1148 C   0  0  0  0  0  0  0  0  0  0  0  0
   18.6063   -8.5429    5.8664 C   0  0  0  0  0  0  0  0  0  0  0  0
   17.5509   -7.6099    5.3031 C   0  0  0  0  0  0  0  0  0  0  0  0
 31 32  1  0  0  0
 32 33  1  0  0  0
 32 21  1  0  0  0
 21 22  1  0  0  0
 22 23  2  0  0  0
 23 24  1  0  0  0
 24 25  2  0  0  0
 25 26  1  0  0  0
 26 20  1  0  0  0
 26 27  2  0  0  0
 20 19  1  0  0  0
 19  1  1  0  0  0
  1  2  2  0  0  0
  2  3  1  0  0  0
  3  8  1  0  0  0
  3  4  2  0  0  0
  8  9  1  0  0  0
  9 10  2  0  0  0
  9 12  1  0  0  0
 12 13  2  0  0  0
 13 14  1  0  0  0
 14 15  2  0  0  0
 15 16  1  0  0  0
 15 17  1  0  0  0
 17 18  2  0  0  0
 18 12  1  0  0  0
  4  5  1  0  0  0
  5  6  2  0  0  0
  6  7  1  0  0  0
  6  1  1  0  0  0
 27 28  1  0  0  0
 28 29  2  0  0  0
 28 30  1  0  0  0
 30 21  1  0  0  0
 30 24  1  0  0  0
  8 11  1  0  0  0
M  END
>  <minimizedAffinity>
-8.67811

>  <minimizedRMSD>
1.23877

$$$$
ChemDiv-G357-0773 CHEMBL2135021 MCULE-1517337011 MolPort-007-847-325 PubChem-16027650 ZINC000008607747 ZINC08607747


 35 38  0  0  0  0  0  0  0  0999 V2000
   18.2347  -10.5774   13.8043 C   0  0  0  0  0  0  0  0  0  0  0  0
   18.8530  -11.6663   13.9636 O   0  0  0  0  0  0  0  0  0  0  0  0
   17.5555   -9.9416   14.9446 C   0  0  0  0  0  0  0  0  0  0  0  0
   17.6231  -10.5115   16.2235 C   0  0  0  0  0  0  0  0  0  0  0  0
   16.9757   -9.9031   17.3026 C   0  0  0  0  0  0  0  0  0  0  0  0
   16.2528   -8.7200   17.1193 C   0  0  0  0  0  0  0  0  0  0  0  0
   16.1854   -8.1493   15.8397 C   0  0  0  0  0  0  0  0  0  0  0  0
   16.8323   -8.7563   14.7600 C   0  0  0  0  0  0  0  0  0  0  0  0
   15.6033   -8.1264   18.2516 N   0  0  0  0  0  0  0  0  0  0  0  0
   14.2781   -7.5746   18.2939 C   0  0  0  0  0  0  0  0  0  0  0  0
   13.5454   -7.5850   17.2674 O   0  0  0  0  0  0  0  0  0  0  0  0
   16.1206   -8.0936   19.0886 H   0  0  0  0  0  0  0  0  0  0  0  0
   13.7692   -6.9930   19.5486 C   0  0  0  0  0  0  0  0  0  0  0  0
   12.6937   -6.0922   19.5292 C   0  0  0  0  0  0  0  0  0  0  0  0
   12.2112   -5.5414   20.7199 C   0  0  0  0  0  0  0  0  0  0  0  0
   11.0716   -4.5883   20.6890 C   0  0  0  0  0  0  0  0  0  0  0  0
   12.8004   -5.8868   21.9390 C   0  0  0  0  0  0  0  0  0  0  0  0
   13.8720   -6.7832   21.9676 C   0  0  0  0  0  0  0  0  0  0  0  0
   14.3545   -7.3343   20.7768 C   0  0  0  0  0  0  0  0  0  0  0  0
   18.1917   -9.9699   12.5473 O   0  0  0  0  0  0  0  0  0  0  0  0
   16.9898   -9.8816   11.7962 C   0  0  0  0  0  0  0  0  0  0  0  0
   19.2076   -7.5204    6.6619 C   0  0  0  0  0  0  0  0  0  0  0  0
   18.2374   -8.4645    6.5882 N   0  0  0  0  0  0  0  0  0  0  0  0
   17.8614   -8.8884    7.7922 N   0  0  0  0  0  0  0  0  0  0  0  0
   18.5148   -8.2934    8.8125 C   0  0  0  0  0  0  0  0  0  0  0  0
   19.6349   -7.1675    8.2656 S   0  0  0  0  0  0  0  0  0  0  0  0
   18.2524   -8.6049   10.1052 N   0  0  0  0  0  0  0  0  0  0  0  0
   17.3096   -9.5495   10.3829 C   0  0  0  0  0  0  0  0  0  0  0  0
   16.6076  -10.1792    9.3417 C   0  0  0  0  0  0  0  0  0  0  0  0
   16.9070   -9.8288    8.0206 C   0  0  0  0  0  0  0  0  0  0  0  0
   16.2980  -10.3777    7.0644 O   0  0  0  0  0  0  0  0  0  0  0  0
   19.8103   -6.8622    5.4670 C   0  0  0  0  0  0  0  0  0  0  0  0
   21.9422   -7.1741    4.2126 C   0  0  0  0  0  0  0  0  0  0  0  0
   20.6609   -7.8425    4.6755 C   0  0  0  0  0  0  0  0  0  0  0  0
   19.8836   -8.3148    3.4654 C   0  0  0  0  0  0  0  0  0  0  0  0
 33 34  1  0  0  0
 34 35  1  0  0  0
 34 32  1  0  0  0
 32 22  1  0  0  0
 22 23  2  0  0  0
 23 24  1  0  0  0
 24 25  1  0  0  0
 25 26  1  0  0  0
 25 27  2  0  0  0
 26 22  1  0  0  0
 27 28  1  0  0  0
 28 21  1  0  0  0
 28 29  2  0  0  0
 21 20  1  0  0  0
 20  1  1  0  0  0
  1  2  2  0  0  0
  1  3  1  0  0  0
  3  4  2  0  0  0
  4  5  1  0  0  0
  5  6  2  0  0  0
  6  9  1  0  0  0
  6  7  1  0  0  0
  9 10  1  0  0  0
 10 11  2  0  0  0
 10 13  1  0  0  0
 13 14  2  0  0  0
 14 15  1  0  0  0
 15 16  1  0  0  0
 15 17  2  0  0  0
 17 18  1  0  0  0
 18 19  2  0  0  0
 19 13  1  0  0  0
  7  8  2  0  0  0
  8  3  1  0  0  0
 29 30  1  0  0  0
 30 31  2  0  0  0
 30 24  1  0  0  0
  9 12  1  0  0  0
M  END
>  <minimizedAffinity>
-8.67714

>  <minimizedRMSD>
1.28245

$$$$
ChemDiv-D439-2882 MCULE-3552479345 MolPort-010-713-984 PubChem-50748712 ZINC000021796871 ZINC21796871


 34 37  0  0  0  0  0  0  0  0999 V2000
   16.7036   -9.7009   13.9790 C   0  0  0  0  0  0  0  0  0  0  0  0
   17.7300  -10.6571   14.0056 C   0  0  0  0  0  0  0  0  0  0  0  0
   18.3217  -11.0197   15.2182 C   0  0  0  0  0  0  0  0  0  0  0  0
   17.8913  -10.4292   16.4094 C   0  0  0  0  0  0  0  0  0  0  0  0
   16.8671   -9.4763   16.3974 C   0  0  0  0  0  0  0  0  0  0  0  0
   16.2774   -9.1178   15.1763 C   0  0  0  0  0  0  0  0  0  0  0  0
   16.4558   -8.8913   17.6394 N   0  0  0  0  0  0  0  0  0  0  0  0
   15.3935   -7.9471   17.8335 C   0  0  0  0  0  0  0  0  0  0  0  0
   14.7213   -7.5129   16.8617 O   0  0  0  0  0  0  0  0  0  0  0  0
   16.9540   -9.1660   18.4428 H   0  0  0  0  0  0  0  0  0  0  0  0
   15.0995   -7.4389   19.2050 C   0  0  0  0  0  0  0  0  0  0  0  0
   13.8852   -7.9985   19.6941 O   0  0  0  0  0  0  0  0  0  0  0  0
   12.6053   -7.4591   19.4898 C   0  0  0  0  0  0  0  0  0  0  0  0
   12.1354   -6.2708   20.1065 C   0  0  0  0  0  0  0  0  0  0  0  0
   12.9352   -5.5014   21.1008 C   0  0  0  0  0  0  0  0  0  0  0  0
   10.8442   -5.8115   19.8281 C   0  0  0  0  0  0  0  0  0  0  0  0
   10.0128   -6.5141   18.9547 C   0  0  0  0  0  0  0  0  0  0  0  0
   10.4653   -7.6901   18.3583 C   0  0  0  0  0  0  0  0  0  0  0  0
   11.7517   -8.1584   18.6287 C   0  0  0  0  0  0  0  0  0  0  0  0
   16.0959   -9.3105   12.7835 O   0  0  0  0  0  0  0  0  0  0  0  0
   15.9008  -10.2020   11.6931 C   0  0  0  0  0  0  0  0  0  0  0  0
   18.9234   -8.2222    7.5569 N   0  0  0  0  0  0  0  0  0  0  0  0
   19.7617   -7.4756    8.3183 C   0  0  0  0  0  0  0  0  0  0  0  0
   19.4611   -7.5877    9.6412 N   0  0  0  0  0  0  0  0  0  0  0  0
   18.4116   -8.4323    9.6194 C   0  0  0  0  0  0  0  0  0  0  0  0
   17.7280   -8.8703   10.7047 N   0  0  0  0  0  0  0  0  0  0  0  0
   16.6837   -9.7313   10.5201 C   0  0  0  0  0  0  0  0  0  0  0  0
   16.3142  -10.1421    9.2233 C   0  0  0  0  0  0  0  0  0  0  0  0
   17.0486   -9.6621    8.1318 C   0  0  0  0  0  0  0  0  0  0  0  0
   16.7500  -10.0068    6.9579 O   0  0  0  0  0  0  0  0  0  0  0  0
   18.0830   -8.8158    8.3844 N   0  0  0  0  0  0  0  0  0  0  0  0
   17.7606   -7.6191    5.4881 C   0  0  0  0  0  0  0  0  0  0  0  0
   18.9378   -8.3531    6.1022 C   0  0  0  0  0  0  0  0  0  0  0  0
   20.2377   -7.8184    5.5321 C   0  0  0  0  0  0  0  0  0  0  0  0
 32 33  1  0  0  0
 33 34  1  0  0  0
 33 22  1  0  0  0
 22 23  1  0  0  0
 23 24  2  0  0  0
 24 25  1  0  0  0
 25 26  2  0  0  0
 26 27  1  0  0  0
 27 21  1  0  0  0
 27 28  2  0  0  0
 21 20  1  0  0  0
 20  1  1  0  0  0
  1  2  2  0  0  0
  2  3  1  0  0  0
  3  4  2  0  0  0
  4  5  1  0  0  0
  5  7  1  0  0  0
  5  6  2  0  0  0
  7  8  1  0  0  0
  8  9  2  0  0  0
  8 11  1  0  0  0
 11 12  1  0  0  0
 12 13  1  0  0  0
 13 14  2  0  0  0
 14 15  1  0  0  0
 14 16  1  0  0  0
 16 17  2  0  0  0
 17 18  1  0  0  0
 18 19  2  0  0  0
 19 13  1  0  0  0
  6  1  1  0  0  0
 28 29  1  0  0  0
 29 30  2  0  0  0
 29 31  1  0  0  0
 31 22  1  0  0  0
 31 25  1  0  0  0
  7 10  1  0  0  0
M  END
>  <minimizedAffinity>
-8.67014

>  <minimizedRMSD>
1.64552

$$$$
ChemDiv-C679-6247 MCULE-6340715734 MolPort-010-755-241 PubChem-50744295 ZINC000045984886 ZINC45984886


 32 35  0  0  0  0  0  0  0  0999 V2000
   16.8193  -10.0072   16.6241 C   0  0  0  0  0  0  0  0  0  0  0  0
   16.7802   -9.5856   15.2863 C   0  0  0  0  0  0  0  0  0  0  0  0
   17.4413  -10.3100   14.2895 C   0  0  0  0  0  0  0  0  0  0  0  0
   18.1505  -11.4708   14.6370 C   0  0  0  0  0  0  0  0  0  0  0  0
   18.1935  -11.8965   15.9668 C   0  0  0  0  0  0  0  0  0  0  0  0
   17.5295  -11.1660   16.9558 C   0  0  0  0  0  0  0  0  0  0  0  0
   15.3358   -8.1125   17.5184 C   0  0  0  0  0  0  0  0  0  0  0  0
   15.1432   -7.6050   16.3798 O   0  0  0  0  0  0  0  0  0  0  0  0
   16.1515   -9.2852   17.6675 N   0  0  0  0  0  0  0  0  0  0  0  0
   16.2639   -9.6297   18.5829 H   0  0  0  0  0  0  0  0  0  0  0  0
   13.5406   -6.3167   20.9736 C   0  0  0  0  0  0  0  0  0  0  0  0
   14.7603   -7.0033   21.0844 C   0  0  0  0  0  0  0  0  0  0  0  0
   15.3444   -7.5882   19.9574 C   0  0  0  0  0  0  0  0  0  0  0  0
   14.7191   -7.4960   18.7064 C   0  0  0  0  0  0  0  0  0  0  0  0
   13.5001   -6.8106   18.5994 C   0  0  0  0  0  0  0  0  0  0  0  0
   12.9160   -6.2248   19.7261 C   0  0  0  0  0  0  0  0  0  0  0  0
   12.9320   -5.7192   22.0811 O   0  0  0  0  0  0  0  0  0  0  0  0
   12.6173   -5.0499   24.3624 C   0  0  0  0  0  0  0  0  0  0  0  0
   13.6029   -5.5365   23.3205 C   0  0  0  0  0  0  0  0  0  0  0  0
   17.3778   -9.8566   12.9694 O   0  0  0  0  0  0  0  0  0  0  0  0
   18.5132   -9.3602   12.2726 C   0  0  0  0  0  0  0  0  0  0  0  0
   18.2116   -9.2838   10.8188 C   0  0  0  0  0  0  0  0  0  0  0  0
   17.0446   -9.8948   10.3145 C   0  0  0  0  0  0  0  0  0  0  0  0
   16.7701   -9.7853    8.9458 C   0  0  0  0  0  0  0  0  0  0  0  0
   15.7436  -10.3165    8.4468 O   0  0  0  0  0  0  0  0  0  0  0  0
   17.6404   -9.0886    8.1764 N   0  0  0  0  0  0  0  0  0  0  0  0
   17.5900   -8.8586    6.9043 O   0  0  0  0  0  0  0  0  0  0  0  0
   18.6389   -8.1358    6.5634 C   0  0  0  0  0  0  0  0  0  0  0  0
   18.9143   -7.6777    5.1764 C   0  0  0  0  0  0  0  0  0  0  0  0
   19.4443   -7.8629    7.6745 C   0  0  0  0  0  0  0  0  0  0  0  0
   18.7373   -8.5082    8.6712 C   0  0  0  0  0  0  0  0  0  0  0  0
   19.0450   -8.5871    9.9891 N   0  0  0  0  0  0  0  0  0  0  0  0
 18 19  1  0  0  0
 19 17  1  0  0  0
 17 11  1  0  0  0
 11 12  2  0  0  0
 12 13  1  0  0  0
 13 14  2  0  0  0
 14 15  1  0  0  0
 14  7  1  0  0  0
 15 16  2  0  0  0
 16 11  1  0  0  0
  7  8  2  0  0  0
  7  9  1  0  0  0
  9  1  1  0  0  0
  1  2  2  0  0  0
  2  3  1  0  0  0
  3 20  1  0  0  0
  3  4  2  0  0  0
 20 21  1  0  0  0
 21 22  1  0  0  0
 22 23  2  0  0  0
 23 24  1  0  0  0
 24 25  2  0  0  0
 24 26  1  0  0  0
 26 27  1  0  0  0
 27 28  1  0  0  0
 28 29  1  0  0  0
 28 30  2  0  0  0
 30 31  1  0  0  0
 31 32  2  0  0  0
 31 26  1  0  0  0
 32 22  1  0  0  0
  4  5  1  0  0  0
  5  6  2  0  0  0
  6  1  1  0  0  0
  9 10  1  0  0  0
M  END
>  <minimizedAffinity>
-8.66933

>  <minimizedRMSD>
0.96082

$$$$
ChemDiv-G756-1404 MCULE-4558218078 MolPort-007-879-808 PubChem-22580502 ZINC000021100428 ZINC21100428


 25 27  0  0  0  0  0  0  0  0999 V2000
   16.9406   -9.3701   12.2655 C   0  0  0  0  0  0  0  0  0  0  0  0
   17.2232   -9.3146   10.8070 C   0  0  0  0  0  0  0  0  0  0  0  0
   16.5178  -10.1329    9.9298 C   0  0  0  0  0  0  0  0  0  0  0  0
   16.7834  -10.0411    8.5644 C   0  0  0  0  0  0  0  0  0  0  0  0
   16.1482  -10.7852    7.7677 O   0  0  0  0  0  0  0  0  0  0  0  0
   17.7193   -9.1537    8.1044 N   0  0  0  0  0  0  0  0  0  0  0  0
   17.9788   -9.0645    6.7656 C   0  0  0  0  0  0  0  0  0  0  0  0
   18.9276   -8.1629    6.2810 C   0  0  0  0  0  0  0  0  0  0  0  0
   19.2010   -8.0753    4.8232 C   0  0  0  0  0  0  0  0  0  0  0  0
   19.6155   -7.3456    7.1753 C   0  0  0  0  0  0  0  0  0  0  0  0
   19.3503   -7.4370    8.5405 C   0  0  0  0  0  0  0  0  0  0  0  0
   18.3957   -8.3498    8.9958 C   0  0  0  0  0  0  0  0  0  0  0  0
   18.1390   -8.4367   10.3266 N   0  0  0  0  0  0  0  0  0  0  0  0
   17.9887  -10.0651   12.9282 O   0  0  0  0  0  0  0  0  0  0  0  0
   17.0805  -10.2038   16.5127 C   0  0  0  0  0  0  0  0  0  0  0  0
   17.2233   -9.7558   15.1904 C   0  0  0  0  0  0  0  0  0  0  0  0
   17.8669  -10.5472   14.2339 C   0  0  0  0  0  0  0  0  0  0  0  0
   18.3733  -11.8025   14.6061 C   0  0  0  0  0  0  0  0  0  0  0  0
   18.2345  -12.2546   15.9205 C   0  0  0  0  0  0  0  0  0  0  0  0
   17.5900  -11.4566   16.8693 C   0  0  0  0  0  0  0  0  0  0  0  0
   15.0178   -7.5534   18.4639 C   0  0  0  0  0  0  0  0  0  0  0  0
   15.6215   -8.2481   17.2974 C   0  0  0  0  0  0  0  0  0  0  0  0
   15.4166   -7.8003   16.1386 O   0  0  0  0  0  0  0  0  0  0  0  0
   16.4255   -9.4144   17.5150 N   0  0  0  0  0  0  0  0  0  0  0  0
   16.5400   -9.7036   18.4491 H   0  0  0  0  0  0  0  0  0  0  0  0
 21 22  1  0  0  0
 22 23  2  0  0  0
 22 24  1  0  0  0
 24 15  1  0  0  0
 15 16  2  0  0  0
 16 17  1  0  0  0
 17 14  1  0  0  0
 17 18  2  0  0  0
 14  1  1  0  0  0
  1  2  1  0  0  0
  2  3  2  0  0  0
  3  4  1  0  0  0
  4  5  2  0  0  0
  4  6  1  0  0  0
  6  7  1  0  0  0
  7  8  2  0  0  0
  8  9  1  0  0  0
  8 10  1  0  0  0
 10 11  2  0  0  0
 11 12  1  0  0  0
 12 13  2  0  0  0
 12  6  1  0  0  0
 13  2  1  0  0  0
 18 19  1  0  0  0
 19 20  2  0  0  0
 20 15  1  0  0  0
 24 25  1  0  0  0
M  END
>  <minimizedAffinity>
-8.66883

>  <minimizedRMSD>
0.90637

$$$$
ChemDiv-G357-3555 MCULE-6513734558 MolPort-007-848-036 PubChem-46343654 ZINC000015772411


 36 39  0  0  0  0  0  0  0  0999 V2000
   17.7525  -10.3604   14.7563 C   0  0  0  0  0  0  0  0  0  0  0  0
   17.7015  -11.0106   15.9972 C   0  0  0  0  0  0  0  0  0  0  0  0
   17.1105  -10.3842   17.0986 C   0  0  0  0  0  0  0  0  0  0  0  0
   16.5632   -9.1032   16.9754 C   0  0  0  0  0  0  0  0  0  0  0  0
   16.6152   -8.4520   15.7339 C   0  0  0  0  0  0  0  0  0  0  0  0
   17.2059   -9.0766   14.6324 C   0  0  0  0  0  0  0  0  0  0  0  0
   15.9637   -8.4958   18.1278 N   0  0  0  0  0  0  0  0  0  0  0  0
   14.7706   -7.6971   18.1588 C   0  0  0  0  0  0  0  0  0  0  0  0
   14.1294   -7.4591   17.0988 O   0  0  0  0  0  0  0  0  0  0  0  0
   16.4182   -8.6418   18.9889 H   0  0  0  0  0  0  0  0  0  0  0  0
   14.2907   -7.1507   19.4406 C   0  0  0  0  0  0  0  0  0  0  0  0
   13.1877   -6.2854   19.4758 C   0  0  0  0  0  0  0  0  0  0  0  0
   12.7332   -5.7691   20.6920 C   0  0  0  0  0  0  0  0  0  0  0  0
   13.3772   -6.1125   21.8914 C   0  0  0  0  0  0  0  0  0  0  0  0
   14.4782   -6.9740   21.8565 C   0  0  0  0  0  0  0  0  0  0  0  0
   14.9323   -7.4908   20.6398 C   0  0  0  0  0  0  0  0  0  0  0  0
   12.9489   -5.6104   23.1254 O   0  0  0  0  0  0  0  0  0  0  0  0
   12.4115   -4.3026   23.2919 C   0  0  0  0  0  0  0  0  0  0  0  0
   10.9213   -4.3809   23.5686 C   0  0  0  0  0  0  0  0  0  0  0  0
   18.3709  -11.0152   13.5921 C   0  0  0  0  0  0  0  0  0  0  0  0
   18.8761  -12.1662   13.7078 O   0  0  0  0  0  0  0  0  0  0  0  0
   18.3949  -10.3564   12.3608 O   0  0  0  0  0  0  0  0  0  0  0  0
   17.2131   -9.8632   11.7482 C   0  0  0  0  0  0  0  0  0  0  0  0
   17.9774   -8.8180    7.7356 N   0  0  0  0  0  0  0  0  0  0  0  0
   18.3262   -8.3832    6.5270 N   0  0  0  0  0  0  0  0  0  0  0  0
   19.3294   -7.4737    6.5845 C   0  0  0  0  0  0  0  0  0  0  0  0
   19.8345   -7.1791    8.1778 S   0  0  0  0  0  0  0  0  0  0  0  0
   18.6900   -8.2709    8.7429 C   0  0  0  0  0  0  0  0  0  0  0  0
   18.4636   -8.6009   10.0377 N   0  0  0  0  0  0  0  0  0  0  0  0
   17.4964   -9.5159   10.3308 C   0  0  0  0  0  0  0  0  0  0  0  0
   16.7342  -10.0964    9.3036 C   0  0  0  0  0  0  0  0  0  0  0  0
   16.9981   -9.7283    7.9798 C   0  0  0  0  0  0  0  0  0  0  0  0
   16.3343  -10.2330    7.0357 O   0  0  0  0  0  0  0  0  0  0  0  0
   19.9318   -6.8385    5.3774 C   0  0  0  0  0  0  0  0  0  0  0  0
   20.5457   -7.8865    4.4621 C   0  0  0  0  0  0  0  0  0  0  0  0
   21.8980   -7.4230    3.9507 C   0  0  0  0  0  0  0  0  0  0  0  0
 24 25  1  0  0  0
 25 26  2  0  0  0
 26 27  1  0  0  0
 27 28  1  0  0  0
 28 29  2  0  0  0
 29 30  1  0  0  0
 30 23  1  0  0  0
 23 22  1  0  0  0
 22 20  1  0  0  0
 20 21  2  0  0  0
 20  1  1  0  0  0
  1  2  2  0  0  0
  2  3  1  0  0  0
  3  4  2  0  0  0
  4  5  1  0  0  0
  5  6  2  0  0  0
  4  7  1  0  0  0
  7  8  1  0  0  0
  8  9  2  0  0  0
  8 11  1  0  0  0
 11 12  2  0  0  0
 12 13  1  0  0  0
 13 14  2  0  0  0
 14 15  1  0  0  0
 15 16  2  0  0  0
 14 17  1  0  0  0
 17 18  1  0  0  0
 18 19  1  0  0  0
 30 31  2  0  0  0
 31 32  1  0  0  0
 32 33  2  0  0  0
 26 34  1  0  0  0
 34 35  1  0  0  0
 35 36  1  0  0  0
 28 24  1  0  0  0
  6  1  1  0  0  0
 16 11  1  0  0  0
 32 24  1  0  0  0
  7 10  1  0  0  0
M  END
>  <minimizedAffinity>
-8.66100

>  <minimizedRMSD>
0.88047

$$$$
ChemDiv-G357-2242 MCULE-9245578558 MolPort-007-847-794 PubChem-20953128 ZINC000015772079 ZINC15772079


 31 34  0  0  0  0  0  0  0  0999 V2000
   17.4620   -9.2897   10.2984 C   0  0  0  0  0  0  0  0  0  0  0  0
   16.6930  -10.0146    9.3724 C   0  0  0  0  0  0  0  0  0  0  0  0
   16.9475   -9.8437    8.0070 C   0  0  0  0  0  0  0  0  0  0  0  0
   16.2754  -10.4792    7.1516 O   0  0  0  0  0  0  0  0  0  0  0  0
   17.9251   -8.9794    7.6258 N   0  0  0  0  0  0  0  0  0  0  0  0
   18.2603   -8.7196    6.3645 N   0  0  0  0  0  0  0  0  0  0  0  0
   19.2661   -7.8136    6.2804 C   0  0  0  0  0  0  0  0  0  0  0  0
   19.7731   -7.2827    7.8099 S   0  0  0  0  0  0  0  0  0  0  0  0
   18.6436   -8.2904    8.5370 C   0  0  0  0  0  0  0  0  0  0  0  0
   18.4257   -8.4269    9.8676 N   0  0  0  0  0  0  0  0  0  0  0  0
   19.8184   -7.3041    4.9926 C   0  0  0  0  0  0  0  0  0  0  0  0
   21.3407   -7.1160    5.0920 C   0  0  0  0  0  0  0  0  0  0  0  0
   22.0702   -7.3292    3.7602 C   0  0  0  0  0  0  0  0  0  0  0  0
   21.2110   -6.8692    2.5861 C   0  0  0  0  0  0  0  0  0  0  0  0
   19.9076   -7.6750    2.4931 C   0  0  0  0  0  0  0  0  0  0  0  0
   19.4278   -8.2287    3.8412 C   0  0  0  0  0  0  0  0  0  0  0  0
   17.1932   -9.4287   11.7544 C   0  0  0  0  0  0  0  0  0  0  0  0
   18.1888  -10.2524   12.3445 O   0  0  0  0  0  0  0  0  0  0  0  0
   17.9478  -10.9873   13.5073 C   0  0  0  0  0  0  0  0  0  0  0  0
   18.1633  -12.2312   13.5299 O   0  0  0  0  0  0  0  0  0  0  0  0
   16.4668   -8.9903   16.9982 C   0  0  0  0  0  0  0  0  0  0  0  0
   17.1049  -10.2297   17.1124 C   0  0  0  0  0  0  0  0  0  0  0  0
   17.5881  -10.8845   15.9759 C   0  0  0  0  0  0  0  0  0  0  0  0
   17.4413  -10.3039   14.7084 C   0  0  0  0  0  0  0  0  0  0  0  0
   16.8040   -9.0618   14.5933 C   0  0  0  0  0  0  0  0  0  0  0  0
   16.3201   -8.4088   15.7302 C   0  0  0  0  0  0  0  0  0  0  0  0
   14.4525   -6.9706   19.6344 C   0  0  0  0  0  0  0  0  0  0  0  0
   14.7799   -7.5872   18.3223 C   0  0  0  0  0  0  0  0  0  0  0  0
   13.9891   -7.4338   17.3538 O   0  0  0  0  0  0  0  0  0  0  0  0
   15.9859   -8.3494   18.1874 N   0  0  0  0  0  0  0  0  0  0  0  0
   16.5417   -8.4427   18.9946 H   0  0  0  0  0  0  0  0  0  0  0  0
 27 28  1  0  0  0
 28 29  2  0  0  0
 28 30  1  0  0  0
 30 21  1  0  0  0
 21 22  2  0  0  0
 22 23  1  0  0  0
 23 24  2  0  0  0
 24 25  1  0  0  0
 24 19  1  0  0  0
 25 26  2  0  0  0
 26 21  1  0  0  0
 19 20  2  0  0  0
 19 18  1  0  0  0
 18 17  1  0  0  0
 17  1  1  0  0  0
  1  2  2  0  0  0
  2  3  1  0  0  0
  3  4  2  0  0  0
  3  5  1  0  0  0
  5  6  1  0  0  0
  6  7  2  0  0  0
  7  8  1  0  0  0
  7 11  1  0  0  0
  8  9  1  0  0  0
  9 10  2  0  0  0
  9  5  1  0  0  0
 10  1  1  0  0  0
 11 12  1  0  0  0
 12 13  1  0  0  0
 13 14  1  0  0  0
 14 15  1  0  0  0
 15 16  1  0  0  0
 16 11  1  0  0  0
 30 31  1  0  0  0
M  END
>  <minimizedAffinity>
-8.66097

>  <minimizedRMSD>
1.79456

$$$$
ChemDiv-G357-0278 MCULE-7902620469 MolPort-007-847-125 PubChem-20952968 ZINC000021016760 ZINC21016760


 36 39  0  0  0  0  0  0  0  0999 V2000
   17.7610  -10.0447   14.9301 C   0  0  0  0  0  0  0  0  0  0  0  0
   17.0929   -8.8248   14.7640 C   0  0  0  0  0  0  0  0  0  0  0  0
   16.4117   -8.2422   15.8362 C   0  0  0  0  0  0  0  0  0  0  0  0
   16.3896   -8.8720   17.0893 C   0  0  0  0  0  0  0  0  0  0  0  0
   17.0570  -10.0899   17.2540 C   0  0  0  0  0  0  0  0  0  0  0  0
   17.7387  -10.6740   16.1826 C   0  0  0  0  0  0  0  0  0  0  0  0
   15.7019   -8.3047   18.2125 N   0  0  0  0  0  0  0  0  0  0  0  0
   14.4601   -7.5895   18.1855 C   0  0  0  0  0  0  0  0  0  0  0  0
   13.8492   -7.3785   17.1046 O   0  0  0  0  0  0  0  0  0  0  0  0
   16.1267   -8.4182   19.0934 H   0  0  0  0  0  0  0  0  0  0  0  0
   13.9030   -7.0523   19.4541 C   0  0  0  0  0  0  0  0  0  0  0  0
   14.9560   -6.8375   20.3825 O   0  0  0  0  0  0  0  0  0  0  0  0
   14.7945   -6.5541   21.7486 C   0  0  0  0  0  0  0  0  0  0  0  0
   14.0415   -5.4646   22.2649 C   0  0  0  0  0  0  0  0  0  0  0  0
   13.3233   -4.4819   21.4055 C   0  0  0  0  0  0  0  0  0  0  0  0
   13.9508   -5.2805   23.6490 C   0  0  0  0  0  0  0  0  0  0  0  0
   14.5913   -6.1552   24.5273 C   0  0  0  0  0  0  0  0  0  0  0  0
   15.3307   -7.2255   24.0264 C   0  0  0  0  0  0  0  0  0  0  0  0
   15.4291   -7.4203   22.6476 C   0  0  0  0  0  0  0  0  0  0  0  0
   18.4771  -10.6543   13.7981 C   0  0  0  0  0  0  0  0  0  0  0  0
   19.1046  -11.7382   13.9566 O   0  0  0  0  0  0  0  0  0  0  0  0
   18.4590  -10.0277   12.5501 O   0  0  0  0  0  0  0  0  0  0  0  0
   17.2469   -9.6280   11.9275 C   0  0  0  0  0  0  0  0  0  0  0  0
   19.1890   -7.7747    6.4774 C   0  0  0  0  0  0  0  0  0  0  0  0
   18.1791   -8.6755    6.5499 N   0  0  0  0  0  0  0  0  0  0  0  0
   17.8724   -8.9867    7.8071 N   0  0  0  0  0  0  0  0  0  0  0  0
   18.6217   -8.3481    8.7302 C   0  0  0  0  0  0  0  0  0  0  0  0
   19.7473   -7.3237    8.0210 S   0  0  0  0  0  0  0  0  0  0  0  0
   18.4397   -8.5473   10.0584 N   0  0  0  0  0  0  0  0  0  0  0  0
   17.4792   -9.4206   10.4738 C   0  0  0  0  0  0  0  0  0  0  0  0
   16.6781  -10.0931    9.5362 C   0  0  0  0  0  0  0  0  0  0  0  0
   16.8973   -9.8596    8.1741 C   0  0  0  0  0  0  0  0  0  0  0  0
   16.1983  -10.4498    7.3083 O   0  0  0  0  0  0  0  0  0  0  0  0
   19.3239   -8.1781    4.0405 C   0  0  0  0  0  0  0  0  0  0  0  0
   19.7214   -7.2610    5.1807 C   0  0  0  0  0  0  0  0  0  0  0  0
   21.2310   -7.1326    5.2377 C   0  0  0  0  0  0  0  0  0  0  0  0
 34 35  1  0  0  0
 35 36  1  0  0  0
 35 24  1  0  0  0
 24 25  2  0  0  0
 25 26  1  0  0  0
 26 27  1  0  0  0
 27 28  1  0  0  0
 27 29  2  0  0  0
 28 24  1  0  0  0
 29 30  1  0  0  0
 30 23  1  0  0  0
 30 31  2  0  0  0
 23 22  1  0  0  0
 22 20  1  0  0  0
 20 21  2  0  0  0
 20  1  1  0  0  0
  1  2  2  0  0  0
  2  3  1  0  0  0
  3  4  2  0  0  0
  4  7  1  0  0  0
  4  5  1  0  0  0
  7  8  1  0  0  0
  8  9  2  0  0  0
  8 11  1  0  0  0
 11 12  1  0  0  0
 12 13  1  0  0  0
 13 14  2  0  0  0
 14 15  1  0  0  0
 14 16  1  0  0  0
 16 17  2  0  0  0
 17 18  1  0  0  0
 18 19  2  0  0  0
 19 13  1  0  0  0
  5  6  2  0  0  0
  6  1  1  0  0  0
 31 32  1  0  0  0
 32 33  2  0  0  0
 32 26  1  0  0  0
  7 10  1  0  0  0
M  END
>  <minimizedAffinity>
-8.65327

>  <minimizedRMSD>
1.49353

$$$$
ChemDiv-C679-4213 MCULE-4191637226 MolPort-007-655-822 PubChem-46258332 ZINC000013368034 ZINC13368034


 33 36  0  0  0  0  0  0  0  0999 V2000
   17.0194  -10.0847   16.5285 C   0  0  0  0  0  0  0  0  0  0  0  0
   17.1765   -9.5886   15.2255 C   0  0  0  0  0  0  0  0  0  0  0  0
   17.8629  -10.3284   14.2574 C   0  0  0  0  0  0  0  0  0  0  0  0
   18.3964  -11.5810   14.5981 C   0  0  0  0  0  0  0  0  0  0  0  0
   18.2421  -12.0820   15.8928 C   0  0  0  0  0  0  0  0  0  0  0  0
   17.5552  -11.3350   16.8534 C   0  0  0  0  0  0  0  0  0  0  0  0
   15.4798   -8.2005   17.3459 C   0  0  0  0  0  0  0  0  0  0  0  0
   15.3324   -7.7010   16.1972 O   0  0  0  0  0  0  0  0  0  0  0  0
   16.3160   -9.3515   17.5405 N   0  0  0  0  0  0  0  0  0  0  0  0
   16.4170   -9.6709   18.4662 H   0  0  0  0  0  0  0  0  0  0  0  0
   13.4827   -6.4320   20.7027 C   0  0  0  0  0  0  0  0  0  0  0  0
   12.8949   -6.3983   19.4345 C   0  0  0  0  0  0  0  0  0  0  0  0
   13.5447   -6.9751   18.3395 C   0  0  0  0  0  0  0  0  0  0  0  0
   14.7931   -7.5935   18.4999 C   0  0  0  0  0  0  0  0  0  0  0  0
   15.3819   -7.6269   19.7715 C   0  0  0  0  0  0  0  0  0  0  0  0
   14.7324   -7.0505   20.8664 C   0  0  0  0  0  0  0  0  0  0  0  0
   13.4152   -5.6395   23.0447 C   0  0  0  0  0  0  0  0  0  0  0  0
   12.8074   -5.8466   21.7772 O   0  0  0  0  0  0  0  0  0  0  0  0
   17.9978   -9.7985   12.9720 O   0  0  0  0  0  0  0  0  0  0  0  0
   16.9041   -9.2504   12.2477 C   0  0  0  0  0  0  0  0  0  0  0  0
   17.2019   -9.2897   10.7920 C   0  0  0  0  0  0  0  0  0  0  0  0
   16.4543  -10.1292    9.9495 C   0  0  0  0  0  0  0  0  0  0  0  0
   16.7330  -10.1269    8.5784 C   0  0  0  0  0  0  0  0  0  0  0  0
   16.0853  -10.8729    7.7971 O   0  0  0  0  0  0  0  0  0  0  0  0
   17.7111   -9.3077    8.1100 N   0  0  0  0  0  0  0  0  0  0  0  0
   18.0711   -9.2079    6.8327 N   0  0  0  0  0  0  0  0  0  0  0  0
   19.0739   -8.3110    6.6543 C   0  0  0  0  0  0  0  0  0  0  0  0
   19.5526   -7.5937    8.1162 S   0  0  0  0  0  0  0  0  0  0  0  0
   18.4095   -8.5062    8.9416 C   0  0  0  0  0  0  0  0  0  0  0  0
   18.1683   -8.4792   10.2752 N   0  0  0  0  0  0  0  0  0  0  0  0
   19.6741   -7.9860    5.3276 C   0  0  0  0  0  0  0  0  0  0  0  0
   18.6844   -8.2714    4.2152 C   0  0  0  0  0  0  0  0  0  0  0  0
   20.0947   -6.5305    5.2811 C   0  0  0  0  0  0  0  0  0  0  0  0
 17 18  1  0  0  0
 18 11  1  0  0  0
 11 12  2  0  0  0
 12 13  1  0  0  0
 13 14  2  0  0  0
 14 15  1  0  0  0
 14  7  1  0  0  0
 15 16  2  0  0  0
 16 11  1  0  0  0
  7  8  2  0  0  0
  7  9  1  0  0  0
  9  1  1  0  0  0
  1  2  2  0  0  0
  2  3  1  0  0  0
  3 19  1  0  0  0
  3  4  2  0  0  0
 19 20  1  0  0  0
 20 21  1  0  0  0
 21 22  2  0  0  0
 22 23  1  0  0  0
 23 24  2  0  0  0
 23 25  1  0  0  0
 25 26  1  0  0  0
 26 27  2  0  0  0
 27 28  1  0  0  0
 27 31  1  0  0  0
 28 29  1  0  0  0
 29 30  2  0  0  0
 29 25  1  0  0  0
 30 21  1  0  0  0
 31 32  1  0  0  0
 31 33  1  0  0  0
  4  5  1  0  0  0
  5  6  2  0  0  0
  6  1  1  0  0  0
  9 10  1  0  0  0
M  END
>  <minimizedAffinity>
-8.64774

>  <minimizedRMSD>
1.12477

$$$$
ChemDiv-D439-4154 MCULE-6586137900 MolPort-007-706-784 PubChem-46268366 ZINC000021797153 ZINC21797153


 35 38  0  0  0  0  0  0  0  0999 V2000
   17.0573   -9.9302   14.2054 C   0  0  0  0  0  0  0  0  0  0  0  0
   16.5776   -9.2669   15.3406 C   0  0  0  0  0  0  0  0  0  0  0  0
   16.9275   -9.6826   16.6319 C   0  0  0  0  0  0  0  0  0  0  0  0
   17.7684  -10.7849   16.7880 C   0  0  0  0  0  0  0  0  0  0  0  0
   18.2532  -11.4651   15.6702 C   0  0  0  0  0  0  0  0  0  0  0  0
   17.9093  -11.0524   14.3791 C   0  0  0  0  0  0  0  0  0  0  0  0
   18.4511  -11.8532   13.2454 C   0  0  0  0  0  0  0  0  0  0  0  0
   16.4503   -9.0055   17.8026 N   0  0  0  0  0  0  0  0  0  0  0  0
   15.4635   -7.9669   17.8473 C   0  0  0  0  0  0  0  0  0  0  0  0
   14.8871   -7.5670   16.8016 O   0  0  0  0  0  0  0  0  0  0  0  0
   16.8402   -9.2823   18.6632 H   0  0  0  0  0  0  0  0  0  0  0  0
   15.0889   -7.3756   19.1618 C   0  0  0  0  0  0  0  0  0  0  0  0
   13.9049   -7.9886   19.6571 O   0  0  0  0  0  0  0  0  0  0  0  0
   12.5997   -7.5821   19.3406 C   0  0  0  0  0  0  0  0  0  0  0  0
   12.0810   -6.2923   19.6239 C   0  0  0  0  0  0  0  0  0  0  0  0
   12.9720   -5.0597   20.5055 Cl  0  0  0  0  0  0  0  0  0  0  0  0
   10.7666   -5.9806   19.2590 C   0  0  0  0  0  0  0  0  0  0  0  0
    9.9595   -6.9278   18.6268 C   0  0  0  0  0  0  0  0  0  0  0  0
   10.4598   -8.2028   18.3637 C   0  0  0  0  0  0  0  0  0  0  0  0
   11.7703   -8.5259   18.7226 C   0  0  0  0  0  0  0  0  0  0  0  0
   16.6445   -9.4275   12.9614 O   0  0  0  0  0  0  0  0  0  0  0  0
   16.2986  -10.2138   11.8296 C   0  0  0  0  0  0  0  0  0  0  0  0
   18.9706   -8.0094    7.5673 N   0  0  0  0  0  0  0  0  0  0  0  0
   20.0068   -7.4971    8.2775 C   0  0  0  0  0  0  0  0  0  0  0  0
   19.8823   -7.7750    9.6045 N   0  0  0  0  0  0  0  0  0  0  0  0
   18.7293   -8.4706    9.6385 C   0  0  0  0  0  0  0  0  0  0  0  0
   18.1482   -8.9836   10.7505 N   0  0  0  0  0  0  0  0  0  0  0  0
   16.9730   -9.6688   10.6221 C   0  0  0  0  0  0  0  0  0  0  0  0
   16.3711   -9.8282    9.3574 C   0  0  0  0  0  0  0  0  0  0  0  0
   17.0086   -9.2826    8.2362 C   0  0  0  0  0  0  0  0  0  0  0  0
   16.5039   -9.4077    7.0891 O   0  0  0  0  0  0  0  0  0  0  0  0
   18.1788   -8.6172    8.4314 N   0  0  0  0  0  0  0  0  0  0  0  0
   19.5279   -6.7342    5.5539 C   0  0  0  0  0  0  0  0  0  0  0  0
   18.7580   -7.9105    6.1252 C   0  0  0  0  0  0  0  0  0  0  0  0
   19.1829   -9.1938    5.4355 C   0  0  0  0  0  0  0  0  0  0  0  0
 33 34  1  0  0  0
 34 35  1  0  0  0
 34 23  1  0  0  0
 23 24  1  0  0  0
 24 25  2  0  0  0
 25 26  1  0  0  0
 26 27  2  0  0  0
 27 28  1  0  0  0
 28 22  1  0  0  0
 28 29  2  0  0  0
 22 21  1  0  0  0
 21  1  1  0  0  0
  1  2  2  0  0  0
  2  3  1  0  0  0
  3  8  1  0  0  0
  3  4  2  0  0  0
  8  9  1  0  0  0
  9 10  2  0  0  0
  9 12  1  0  0  0
 12 13  1  0  0  0
 13 14  1  0  0  0
 14 15  2  0  0  0
 15 16  1  0  0  0
 15 17  1  0  0  0
 17 18  2  0  0  0
 18 19  1  0  0  0
 19 20  2  0  0  0
 20 14  1  0  0  0
  4  5  1  0  0  0
  5  6  2  0  0  0
  6  7  1  0  0  0
  6  1  1  0  0  0
 29 30  1  0  0  0
 30 31  2  0  0  0
 30 32  1  0  0  0
 32 23  1  0  0  0
 32 26  1  0  0  0
  8 11  1  0  0  0
M  END
>  <minimizedAffinity>
-8.64641

>  <minimizedRMSD>
1.91940

$$$$
ChemDiv-G756-0979 MCULE-6033995249 MolPort-007-879-543 PubChem-46356352 ZINC000033068009 ZINC33068009


 29 32  0  0  0  0  0  0  0  0999 V2000
   17.4371  -10.2789   14.3233 C   0  0  0  0  0  0  0  0  0  0  0  0
   18.1137  -11.4647   14.6501 C   0  0  0  0  0  0  0  0  0  0  0  0
   18.1438  -11.9154   15.9719 C   0  0  0  0  0  0  0  0  0  0  0  0
   17.4991  -11.1851   16.9737 C   0  0  0  0  0  0  0  0  0  0  0  0
   16.8212  -10.0018   16.6627 C   0  0  0  0  0  0  0  0  0  0  0  0
   16.7950   -9.5549   15.3327 C   0  0  0  0  0  0  0  0  0  0  0  0
   16.1720   -9.2808   17.7188 N   0  0  0  0  0  0  0  0  0  0  0  0
   15.3495   -8.1138   17.5833 C   0  0  0  0  0  0  0  0  0  0  0  0
   15.1244   -7.6063   16.4515 O   0  0  0  0  0  0  0  0  0  0  0  0
   16.3049   -9.6227   18.6324 H   0  0  0  0  0  0  0  0  0  0  0  0
   14.7640   -7.5061   18.7827 C   0  0  0  0  0  0  0  0  0  0  0  0
   13.5548   -6.8453   18.8390 C   0  0  0  0  0  0  0  0  0  0  0  0
   13.4278   -6.4530   20.1601 C   0  0  0  0  0  0  0  0  0  0  0  0
   14.5625   -6.8990   20.8164 C   0  0  0  0  0  0  0  0  0  0  0  0
   15.3349   -7.5226   19.9600 O   0  0  0  0  0  0  0  0  0  0  0  0
   17.3877   -9.8002   13.0117 O   0  0  0  0  0  0  0  0  0  0  0  0
   18.5486   -9.3960   12.2977 C   0  0  0  0  0  0  0  0  0  0  0  0
   20.3393   -6.9712    5.6128 C   0  0  0  0  0  0  0  0  0  0  0  0
   19.4004   -7.6991    6.5053 C   0  0  0  0  0  0  0  0  0  0  0  0
   19.6850   -7.8261    7.8635 C   0  0  0  0  0  0  0  0  0  0  0  0
   18.7936   -8.5134    8.6907 C   0  0  0  0  0  0  0  0  0  0  0  0
   19.0727   -8.6358   10.0141 N   0  0  0  0  0  0  0  0  0  0  0  0
   18.2341   -9.3007   10.8478 C   0  0  0  0  0  0  0  0  0  0  0  0
   17.0581   -9.8563   10.3527 C   0  0  0  0  0  0  0  0  0  0  0  0
   16.7745   -9.7287    8.9939 C   0  0  0  0  0  0  0  0  0  0  0  0
   15.7110  -10.2356    8.5422 O   0  0  0  0  0  0  0  0  0  0  0  0
   17.6413   -9.0609    8.1705 N   0  0  0  0  0  0  0  0  0  0  0  0
   17.3622   -8.9364    6.8385 C   0  0  0  0  0  0  0  0  0  0  0  0
   18.2335   -8.2562    5.9859 C   0  0  0  0  0  0  0  0  0  0  0  0
 18 19  1  0  0  0
 19 20  2  0  0  0
 20 21  1  0  0  0
 21 22  2  0  0  0
 22 23  1  0  0  0
 23 17  1  0  0  0
 23 24  2  0  0  0
 17 16  1  0  0  0
 16  1  1  0  0  0
  1  2  2  0  0  0
  2  3  1  0  0  0
  3  4  2  0  0  0
  4  5  1  0  0  0
  5  7  1  0  0  0
  5  6  2  0  0  0
  7  8  1  0  0  0
  8  9  2  0  0  0
  8 11  1  0  0  0
 11 12  2  0  0  0
 12 13  1  0  0  0
 13 14  2  0  0  0
 14 15  1  0  0  0
 15 11  1  0  0  0
  6  1  1  0  0  0
 24 25  1  0  0  0
 25 26  2  0  0  0
 25 27  1  0  0  0
 27 28  1  0  0  0
 27 21  1  0  0  0
 28 29  2  0  0  0
 29 19  1  0  0  0
  7 10  1  0  0  0
M  END
>  <minimizedAffinity>
-8.64300

>  <minimizedRMSD>
0.92373

$$$$
ChemDiv-D439-4112 MCULE-4507331585 MolPort-007-706-761 PubChem-46268343 ZINC000021797061 ZINC21797061


 33 36  0  0  0  0  0  0  0  0999 V2000
   17.3353  -10.0623   14.3044 C   0  0  0  0  0  0  0  0  0  0  0  0
   16.7034   -9.3887   15.3561 C   0  0  0  0  0  0  0  0  0  0  0  0
   16.7578   -9.8713   16.6702 C   0  0  0  0  0  0  0  0  0  0  0  0
   17.4573  -11.0488   16.9348 C   0  0  0  0  0  0  0  0  0  0  0  0
   18.0948  -11.7368   15.9021 C   0  0  0  0  0  0  0  0  0  0  0  0
   18.0438  -11.2597   14.5887 C   0  0  0  0  0  0  0  0  0  0  0  0
   18.7545  -12.0599   13.5521 C   0  0  0  0  0  0  0  0  0  0  0  0
   16.1153   -9.1911   17.7570 N   0  0  0  0  0  0  0  0  0  0  0  0
   15.2594   -8.0414   17.6685 C   0  0  0  0  0  0  0  0  0  0  0  0
   14.9975   -7.5206   16.5500 O   0  0  0  0  0  0  0  0  0  0  0  0
   16.2783   -9.5502   18.6590 H   0  0  0  0  0  0  0  0  0  0  0  0
   14.6818   -7.4651   18.8955 C   0  0  0  0  0  0  0  0  0  0  0  0
   13.4726   -6.7552   18.8463 C   0  0  0  0  0  0  0  0  0  0  0  0
   12.9254   -6.2090   20.0110 C   0  0  0  0  0  0  0  0  0  0  0  0
   13.5834   -6.3686   21.2333 C   0  0  0  0  0  0  0  0  0  0  0  0
   12.8985   -5.6847   22.6915 Cl  0  0  0  0  0  0  0  0  0  0  0  0
   14.7881   -7.0743   21.2917 C   0  0  0  0  0  0  0  0  0  0  0  0
   15.3351   -7.6205   20.1271 C   0  0  0  0  0  0  0  0  0  0  0  0
   17.2153   -9.4881   13.0286 O   0  0  0  0  0  0  0  0  0  0  0  0
   16.4465  -10.0135   11.9560 C   0  0  0  0  0  0  0  0  0  0  0  0
   18.8527   -8.2751    7.3353 N   0  0  0  0  0  0  0  0  0  0  0  0
   19.7741   -7.4755    7.9283 C   0  0  0  0  0  0  0  0  0  0  0  0
   19.6559   -7.5057    9.2841 N   0  0  0  0  0  0  0  0  0  0  0  0
   18.6266   -8.3575    9.4570 C   0  0  0  0  0  0  0  0  0  0  0  0
   18.1025   -8.7316   10.6497 N   0  0  0  0  0  0  0  0  0  0  0  0
   17.0564   -9.6103   10.6617 C   0  0  0  0  0  0  0  0  0  0  0  0
   16.5228  -10.1053    9.4545 C   0  0  0  0  0  0  0  0  0  0  0  0
   17.0964   -9.6902    8.2463 C   0  0  0  0  0  0  0  0  0  0  0  0
   16.6498  -10.1130    7.1474 O   0  0  0  0  0  0  0  0  0  0  0  0
   18.1409   -8.8212    8.3038 N   0  0  0  0  0  0  0  0  0  0  0  0
   19.9647   -8.2285    5.1548 C   0  0  0  0  0  0  0  0  0  0  0  0
   18.6719   -8.4970    5.9025 C   0  0  0  0  0  0  0  0  0  0  0  0
   17.5653   -7.6107    5.3618 C   0  0  0  0  0  0  0  0  0  0  0  0
 31 32  1  0  0  0
 32 33  1  0  0  0
 32 21  1  0  0  0
 21 22  1  0  0  0
 22 23  2  0  0  0
 23 24  1  0  0  0
 24 25  2  0  0  0
 25 26  1  0  0  0
 26 20  1  0  0  0
 26 27  2  0  0  0
 20 19  1  0  0  0
 19  1  1  0  0  0
  1  2  2  0  0  0
  2  3  1  0  0  0
  3  8  1  0  0  0
  3  4  2  0  0  0
  8  9  1  0  0  0
  9 10  2  0  0  0
  9 12  1  0  0  0
 12 13  2  0  0  0
 13 14  1  0  0  0
 14 15  2  0  0  0
 15 16  1  0  0  0
 15 17  1  0  0  0
 17 18  2  0  0  0
 18 12  1  0  0  0
  4  5  1  0  0  0
  5  6  2  0  0  0
  6  7  1  0  0  0
  6  1  1  0  0  0
 27 28  1  0  0  0
 28 29  2  0  0  0
 28 30  1  0  0  0
 30 21  1  0  0  0
 30 24  1  0  0  0
  8 11  1  0  0  0
M  END
>  <minimizedAffinity>
-8.64289

>  <minimizedRMSD>
1.25995

$$$$
ChemDiv-D439-2922 MCULE-5321473853 MolPort-010-713-994 PubChem-50748733 ZINC000021796924 ZINC21796924


 32 35  0  0  0  0  0  0  0  0999 V2000
   16.8128   -9.4285   14.0231 C   0  0  0  0  0  0  0  0  0  0  0  0
   18.1023   -9.9825   14.0447 C   0  0  0  0  0  0  0  0  0  0  0  0
   18.7809  -10.1363   15.2559 C   0  0  0  0  0  0  0  0  0  0  0  0
   18.1760   -9.7382   16.4510 C   0  0  0  0  0  0  0  0  0  0  0  0
   16.8916   -9.1847   16.4446 C   0  0  0  0  0  0  0  0  0  0  0  0
   16.2157   -9.0331   15.2242 C   0  0  0  0  0  0  0  0  0  0  0  0
   16.3052   -8.7886   17.6919 N   0  0  0  0  0  0  0  0  0  0  0  0
   15.1730   -7.9247   17.8763 C   0  0  0  0  0  0  0  0  0  0  0  0
   14.5795   -7.4232   16.8828 O   0  0  0  0  0  0  0  0  0  0  0  0
   16.7231   -9.1469   18.5082 H   0  0  0  0  0  0  0  0  0  0  0  0
   14.7005   -7.6214   19.2388 C   0  0  0  0  0  0  0  0  0  0  0  0
   15.6171   -7.3081   20.2533 C   0  0  0  0  0  0  0  0  0  0  0  0
   15.1701   -7.0202   21.5461 C   0  0  0  0  0  0  0  0  0  0  0  0
   16.0622   -6.7187   22.5195 F   0  0  0  0  0  0  0  0  0  0  0  0
   13.8028   -7.0436   21.8343 C   0  0  0  0  0  0  0  0  0  0  0  0
   12.8826   -7.3547   20.8298 C   0  0  0  0  0  0  0  0  0  0  0  0
   13.3296   -7.6426   19.5369 C   0  0  0  0  0  0  0  0  0  0  0  0
   16.1063   -9.2607   12.8295 O   0  0  0  0  0  0  0  0  0  0  0  0
   16.0667  -10.2553   11.8146 C   0  0  0  0  0  0  0  0  0  0  0  0
   18.8854   -8.2243    7.5608 N   0  0  0  0  0  0  0  0  0  0  0  0
   19.7566   -7.4818    8.2888 C   0  0  0  0  0  0  0  0  0  0  0  0
   19.5186   -7.6072    9.6233 N   0  0  0  0  0  0  0  0  0  0  0  0
   18.4716   -8.4550    9.6429 C   0  0  0  0  0  0  0  0  0  0  0  0
   17.8413   -8.9061   10.7548 N   0  0  0  0  0  0  0  0  0  0  0  0
   16.7917   -9.7688   10.6114 C   0  0  0  0  0  0  0  0  0  0  0  0
   16.3635  -10.1688    9.3293 C   0  0  0  0  0  0  0  0  0  0  0  0
   17.0448   -9.6765    8.2092 C   0  0  0  0  0  0  0  0  0  0  0  0
   16.6943  -10.0135    7.0478 O   0  0  0  0  0  0  0  0  0  0  0  0
   18.0867   -8.8282    8.4210 N   0  0  0  0  0  0  0  0  0  0  0  0
   20.1444   -7.9024    5.4862 C   0  0  0  0  0  0  0  0  0  0  0  0
   18.8303   -8.3406    6.1053 C   0  0  0  0  0  0  0  0  0  0  0  0
   17.6902   -7.5092    5.5475 C   0  0  0  0  0  0  0  0  0  0  0  0
 30 31  1  0  0  0
 31 32  1  0  0  0
 31 20  1  0  0  0
 20 21  1  0  0  0
 21 22  2  0  0  0
 22 23  1  0  0  0
 23 24  2  0  0  0
 24 25  1  0  0  0
 25 19  1  0  0  0
 25 26  2  0  0  0
 19 18  1  0  0  0
 18  1  1  0  0  0
  1  2  2  0  0  0
  2  3  1  0  0  0
  3  4  2  0  0  0
  4  5  1  0  0  0
  5  7  1  0  0  0
  5  6  2  0  0  0
  7  8  1  0  0  0
  8  9  2  0  0  0
  8 11  1  0  0  0
 11 12  2  0  0  0
 12 13  1  0  0  0
 13 14  1  0  0  0
 13 15  2  0  0  0
 15 16  1  0  0  0
 16 17  2  0  0  0
 17 11  1  0  0  0
  6  1  1  0  0  0
 26 27  1  0  0  0
 27 28  2  0  0  0
 27 29  1  0  0  0
 29 20  1  0  0  0
 29 23  1  0  0  0
  7 10  1  0  0  0
M  END
>  <minimizedAffinity>
-8.64207

>  <minimizedRMSD>
1.57022

$$$$
ChemDiv-G756-0978 CSC048333783 MCULE-7089315734 MolPort-007-879-542 PubChem-46356351 ZINC000033068008 ZINC33068008


 29 32  0  0  0  0  0  0  0  0999 V2000
   17.4401  -10.2572   14.3591 C   0  0  0  0  0  0  0  0  0  0  0  0
   18.1201  -11.4394   14.6913 C   0  0  0  0  0  0  0  0  0  0  0  0
   18.1412  -11.8904   16.0133 C   0  0  0  0  0  0  0  0  0  0  0  0
   17.4839  -11.1640   17.0097 C   0  0  0  0  0  0  0  0  0  0  0  0
   16.8023   -9.9843   16.6932 C   0  0  0  0  0  0  0  0  0  0  0  0
   16.7852   -9.5371   15.3632 C   0  0  0  0  0  0  0  0  0  0  0  0
   16.1402   -9.2673   17.7438 N   0  0  0  0  0  0  0  0  0  0  0  0
   15.3151   -8.1018   17.6022 C   0  0  0  0  0  0  0  0  0  0  0  0
   15.1014   -7.5941   16.4687 O   0  0  0  0  0  0  0  0  0  0  0  0
   16.2647   -9.6106   18.6581 H   0  0  0  0  0  0  0  0  0  0  0  0
   14.7123   -7.4931   18.7931 C   0  0  0  0  0  0  0  0  0  0  0  0
   15.2571   -7.4976   20.0677 C   0  0  0  0  0  0  0  0  0  0  0  0
   14.4508   -6.8354   21.0049 C   0  0  0  0  0  0  0  0  0  0  0  0
   13.2725   -6.3076   20.4813 C   0  0  0  0  0  0  0  0  0  0  0  0
   13.2488   -6.6755   18.8399 S   0  0  0  0  0  0  0  0  0  0  0  0
   17.3994   -9.7781   13.0473 O   0  0  0  0  0  0  0  0  0  0  0  0
   18.5718   -9.4533   12.3119 C   0  0  0  0  0  0  0  0  0  0  0  0
   20.2955   -6.9490    5.6389 C   0  0  0  0  0  0  0  0  0  0  0  0
   19.3603   -7.6786    6.5340 C   0  0  0  0  0  0  0  0  0  0  0  0
   19.6633   -7.8301    7.8858 C   0  0  0  0  0  0  0  0  0  0  0  0
   18.7753   -8.5185    8.7156 C   0  0  0  0  0  0  0  0  0  0  0  0
   19.0722   -8.6649   10.0327 N   0  0  0  0  0  0  0  0  0  0  0  0
   18.2372   -9.3316   10.8686 C   0  0  0  0  0  0  0  0  0  0  0  0
   17.0470   -9.8644   10.3827 C   0  0  0  0  0  0  0  0  0  0  0  0
   16.7451   -9.7122    9.0303 C   0  0  0  0  0  0  0  0  0  0  0  0
   15.6686  -10.1984    8.5868 O   0  0  0  0  0  0  0  0  0  0  0  0
   17.6084   -9.0430    8.2044 N   0  0  0  0  0  0  0  0  0  0  0  0
   17.3113   -8.8944    6.8788 C   0  0  0  0  0  0  0  0  0  0  0  0
   18.1788   -8.2124    6.0236 C   0  0  0  0  0  0  0  0  0  0  0  0
 18 19  1  0  0  0
 19 20  2  0  0  0
 20 21  1  0  0  0
 21 22  2  0  0  0
 22 23  1  0  0  0
 23 17  1  0  0  0
 23 24  2  0  0  0
 17 16  1  0  0  0
 16  1  1  0  0  0
  1  2  2  0  0  0
  2  3  1  0  0  0
  3  4  2  0  0  0
  4  5  1  0  0  0
  5  7  1  0  0  0
  5  6  2  0  0  0
  7  8  1  0  0  0
  8  9  2  0  0  0
  8 11  1  0  0  0
 11 12  2  0  0  0
 12 13  1  0  0  0
 13 14  2  0  0  0
 14 15  1  0  0  0
 15 11  1  0  0  0
  6  1  1  0  0  0
 24 25  1  0  0  0
 25 26  2  0  0  0
 25 27  1  0  0  0
 27 28  1  0  0  0
 27 21  1  0  0  0
 28 29  2  0  0  0
 29 19  1  0  0  0
  7 10  1  0  0  0
M  END
>  <minimizedAffinity>
-8.63827

>  <minimizedRMSD>
0.92226

$$$$
ChemDiv-G357-0011 MCULE-1723690663 MolPort-007-847-001 PubChem-46343193 ZINC000015771332


 32 35  0  0  0  0  0  0  0  0999 V2000
   17.1839   -9.9814   14.8190 C   0  0  0  0  0  0  0  0  0  0  0  0
   16.5645   -8.7305   14.7052 C   0  0  0  0  0  0  0  0  0  0  0  0
   16.0811   -8.0768   15.8418 C   0  0  0  0  0  0  0  0  0  0  0  0
   16.2108   -8.6657   17.1082 C   0  0  0  0  0  0  0  0  0  0  0  0
   16.8295   -9.9149   17.2205 C   0  0  0  0  0  0  0  0  0  0  0  0
   17.3134  -10.5699   16.0846 C   0  0  0  0  0  0  0  0  0  0  0  0
   15.7258   -8.0276   18.2977 N   0  0  0  0  0  0  0  0  0  0  0  0
   14.3825   -7.5882   18.5577 C   0  0  0  0  0  0  0  0  0  0  0  0
   13.4878   -7.7514   17.6869 O   0  0  0  0  0  0  0  0  0  0  0  0
   16.3843   -7.8740   19.0132 H   0  0  0  0  0  0  0  0  0  0  0  0
   14.0675   -6.9538   19.8633 C   0  0  0  0  0  0  0  0  0  0  0  0
   14.8398   -7.3323   20.9743 C   0  0  0  0  0  0  0  0  0  0  0  0
   14.6067   -6.7855   22.2370 C   0  0  0  0  0  0  0  0  0  0  0  0
   13.5929   -5.8460   22.4111 C   0  0  0  0  0  0  0  0  0  0  0  0
   12.8148   -5.4533   21.3223 C   0  0  0  0  0  0  0  0  0  0  0  0
   13.0378   -5.9932   20.0504 C   0  0  0  0  0  0  0  0  0  0  0  0
   11.8980   -5.3415   18.6528 Br  0  0  0  0  0  0  0  0  0  0  0  0
   17.6887  -10.6675   13.6188 C   0  0  0  0  0  0  0  0  0  0  0  0
   18.0288  -11.8815   13.6807 O   0  0  0  0  0  0  0  0  0  0  0  0
   17.7887   -9.9694   12.4132 O   0  0  0  0  0  0  0  0  0  0  0  0
   16.6638   -9.7571   11.5728 C   0  0  0  0  0  0  0  0  0  0  0  0
   17.9381   -8.9116    7.6428 N   0  0  0  0  0  0  0  0  0  0  0  0
   18.4396   -8.5355    6.4687 N   0  0  0  0  0  0  0  0  0  0  0  0
   19.4212   -7.6128    6.6086 C   0  0  0  0  0  0  0  0  0  0  0  0
   19.7070   -7.2226    8.2347 S   0  0  0  0  0  0  0  0  0  0  0  0
   18.5080   -8.3018    8.7035 C   0  0  0  0  0  0  0  0  0  0  0  0
   18.1149   -8.5657    9.9735 N   0  0  0  0  0  0  0  0  0  0  0  0
   17.1227   -9.4759   10.1867 C   0  0  0  0  0  0  0  0  0  0  0  0
   16.5060  -10.1206    9.1014 C   0  0  0  0  0  0  0  0  0  0  0  0
   16.9397   -9.8195    7.8055 C   0  0  0  0  0  0  0  0  0  0  0  0
   16.4085  -10.3823    6.8116 O   0  0  0  0  0  0  0  0  0  0  0  0
   20.1557   -7.0220    5.4597 C   0  0  0  0  0  0  0  0  0  0  0  0
 22 23  1  0  0  0
 23 24  2  0  0  0
 24 25  1  0  0  0
 25 26  1  0  0  0
 26 27  2  0  0  0
 27 28  1  0  0  0
 28 21  1  0  0  0
 21 20  1  0  0  0
 20 18  1  0  0  0
 18 19  2  0  0  0
 18  1  1  0  0  0
  1  2  2  0  0  0
  2  3  1  0  0  0
  3  4  2  0  0  0
  4  5  1  0  0  0
  5  6  2  0  0  0
  4  7  1  0  0  0
  7  8  1  0  0  0
  8  9  2  0  0  0
  8 11  1  0  0  0
 11 12  2  0  0  0
 12 13  1  0  0  0
 13 14  2  0  0  0
 14 15  1  0  0  0
 15 16  2  0  0  0
 16 17  1  0  0  0
 28 29  2  0  0  0
 29 30  1  0  0  0
 30 31  2  0  0  0
 24 32  1  0  0  0
 26 22  1  0  0  0
  6  1  1  0  0  0
 16 11  1  0  0  0
 30 22  1  0  0  0
  7 10  1  0  0  0
M  END
>  <minimizedAffinity>
-8.63622

>  <minimizedRMSD>
1.12056

$$$$
ChemDiv-C679-4393 MCULE-9931212559 MolPort-007-655-870 PubChem-46258354 ZINC000020859232


 34 37  0  0  0  0  0  0  0  0999 V2000
   17.4976  -10.8206   14.2900 C   0  0  0  0  0  0  0  0  0  0  0  0
   18.3571  -11.8095   14.7948 C   0  0  0  0  0  0  0  0  0  0  0  0
   18.4515  -12.0227   16.1721 C   0  0  0  0  0  0  0  0  0  0  0  0
   17.6880  -11.2510   17.0519 C   0  0  0  0  0  0  0  0  0  0  0  0
   16.8250  -10.2644   16.5629 C   0  0  0  0  0  0  0  0  0  0  0  0
   16.7366  -10.0543   15.1782 C   0  0  0  0  0  0  0  0  0  0  0  0
   16.0578   -9.4943   17.4983 N   0  0  0  0  0  0  0  0  0  0  0  0
   15.4214   -8.2299   17.2567 C   0  0  0  0  0  0  0  0  0  0  0  0
   15.4755   -7.6912   16.1176 O   0  0  0  0  0  0  0  0  0  0  0  0
   15.9567   -9.8724   18.4017 H   0  0  0  0  0  0  0  0  0  0  0  0
   14.6909   -7.5607   18.3477 C   0  0  0  0  0  0  0  0  0  0  0  0
   13.4302   -7.0010   18.1182 C   0  0  0  0  0  0  0  0  0  0  0  0
   12.7418   -6.3699   19.1543 C   0  0  0  0  0  0  0  0  0  0  0  0
   13.2983   -6.2843   20.4415 C   0  0  0  0  0  0  0  0  0  0  0  0
   14.5759   -6.8493   20.6800 C   0  0  0  0  0  0  0  0  0  0  0  0
   15.2511   -7.4793   19.6279 C   0  0  0  0  0  0  0  0  0  0  0  0
   15.2226   -6.8190   21.9247 O   0  0  0  0  0  0  0  0  0  0  0  0
   14.9471   -7.6999   23.0051 C   0  0  0  0  0  0  0  0  0  0  0  0
   12.5951   -5.6478   21.4704 O   0  0  0  0  0  0  0  0  0  0  0  0
   12.7476   -4.2674   21.7743 C   0  0  0  0  0  0  0  0  0  0  0  0
   17.3835  -10.5785   12.9187 O   0  0  0  0  0  0  0  0  0  0  0  0
   17.0782   -9.2945   12.3894 C   0  0  0  0  0  0  0  0  0  0  0  0
   17.5667   -9.2836    8.2014 N   0  0  0  0  0  0  0  0  0  0  0  0
   17.8273   -9.1610    6.9021 N   0  0  0  0  0  0  0  0  0  0  0  0
   18.7484   -8.1978    6.6574 C   0  0  0  0  0  0  0  0  0  0  0  0
   19.2961   -7.4599    8.0846 S   0  0  0  0  0  0  0  0  0  0  0  0
   18.2719   -8.4406    8.9849 C   0  0  0  0  0  0  0  0  0  0  0  0
   18.1324   -8.4353   10.3329 N   0  0  0  0  0  0  0  0  0  0  0  0
   17.2606   -9.3069   10.9141 C   0  0  0  0  0  0  0  0  0  0  0  0
   16.5070  -10.1901   10.1235 C   0  0  0  0  0  0  0  0  0  0  0  0
   16.6809  -10.1654    8.7354 C   0  0  0  0  0  0  0  0  0  0  0  0
   16.0250  -10.9493    7.9993 O   0  0  0  0  0  0  0  0  0  0  0  0
   19.2573   -7.8794    5.2963 C   0  0  0  0  0  0  0  0  0  0  0  0
   20.6161   -7.2151    5.3978 C   0  0  0  0  0  0  0  0  0  0  0  0
 23 24  1  0  0  0
 24 25  2  0  0  0
 25 26  1  0  0  0
 26 27  1  0  0  0
 27 28  2  0  0  0
 28 29  1  0  0  0
 29 22  1  0  0  0
 22 21  1  0  0  0
 21  1  1  0  0  0
  1  2  2  0  0  0
  2  3  1  0  0  0
  3  4  2  0  0  0
  4  5  1  0  0  0
  5  6  2  0  0  0
  5  7  1  0  0  0
  7  8  1  0  0  0
  8  9  2  0  0  0
  8 11  1  0  0  0
 11 12  2  0  0  0
 12 13  1  0  0  0
 13 14  2  0  0  0
 14 15  1  0  0  0
 15 17  1  0  0  0
 17 18  1  0  0  0
 15 16  2  0  0  0
 14 19  1  0  0  0
 19 20  1  0  0  0
 29 30  2  0  0  0
 30 31  1  0  0  0
 31 32  2  0  0  0
 25 33  1  0  0  0
 33 34  1  0  0  0
 27 23  1  0  0  0
  6  1  1  0  0  0
 16 11  1  0  0  0
 31 23  1  0  0  0
  7 10  1  0  0  0
M  END
>  <minimizedAffinity>
-8.61409

>  <minimizedRMSD>
1.03443

$$$$
ChemDiv-G756-0335 MCULE-7447859082 MolPort-010-744-613 PubChem-50802143 ZINC000033268528 ZINC33268528


 31 34  0  0  0  0  0  0  0  0999 V2000
   18.2368  -11.9182   15.0471 C   0  0  0  0  0  0  0  0  0  0  0  0
   17.4874  -10.8083   15.7003 C   0  0  0  0  0  0  0  0  0  0  0  0
   17.3130  -10.8910   17.0851 C   0  0  0  0  0  0  0  0  0  0  0  0
   16.6258   -9.8935   17.7771 C   0  0  0  0  0  0  0  0  0  0  0  0
   16.1026   -8.7953   17.0945 C   0  0  0  0  0  0  0  0  0  0  0  0
   16.2733   -8.7077   15.7068 C   0  0  0  0  0  0  0  0  0  0  0  0
   16.9584   -9.6968   14.9918 C   0  0  0  0  0  0  0  0  0  0  0  0
   15.3981   -7.7922   17.8388 N   0  0  0  0  0  0  0  0  0  0  0  0
   13.9981   -7.7730   18.1531 C   0  0  0  0  0  0  0  0  0  0  0  0
   13.2387   -8.6781   17.7112 O   0  0  0  0  0  0  0  0  0  0  0  0
   15.9328   -7.0348   18.1699 H   0  0  0  0  0  0  0  0  0  0  0  0
   13.4150   -6.6698   18.9549 C   0  0  0  0  0  0  0  0  0  0  0  0
   13.7755   -6.3992   20.3003 C   0  0  0  0  0  0  0  0  0  0  0  0
   14.9037   -7.3845   21.2217 Cl  0  0  0  0  0  0  0  0  0  0  0  0
   13.1814   -5.3282   20.9770 C   0  0  0  0  0  0  0  0  0  0  0  0
   12.2343   -4.5229   20.3442 C   0  0  0  0  0  0  0  0  0  0  0  0
   11.8663   -4.7874   19.0262 C   0  0  0  0  0  0  0  0  0  0  0  0
   12.4512   -5.8530   18.3404 C   0  0  0  0  0  0  0  0  0  0  0  0
   17.0698   -9.5065   13.6050 O   0  0  0  0  0  0  0  0  0  0  0  0
   18.1366   -9.9720   12.7910 C   0  0  0  0  0  0  0  0  0  0  0  0
   17.8575   -9.6450   11.3681 C   0  0  0  0  0  0  0  0  0  0  0  0
   16.6926  -10.1076   10.7632 C   0  0  0  0  0  0  0  0  0  0  0  0
   16.4424   -9.7631    9.4358 C   0  0  0  0  0  0  0  0  0  0  0  0
   15.3889  -10.1848    8.8841 O   0  0  0  0  0  0  0  0  0  0  0  0
   17.3305   -8.9777    8.7502 N   0  0  0  0  0  0  0  0  0  0  0  0
   17.0837   -8.6400    7.4493 C   0  0  0  0  0  0  0  0  0  0  0  0
   17.9768   -7.8377    6.7369 C   0  0  0  0  0  0  0  0  0  0  0  0
   19.1323   -7.3777    7.3654 C   0  0  0  0  0  0  0  0  0  0  0  0
   19.3836   -7.7219    8.6922 C   0  0  0  0  0  0  0  0  0  0  0  0
   18.4711   -8.5271    9.3780 C   0  0  0  0  0  0  0  0  0  0  0  0
   18.7177   -8.8607   10.6713 N   0  0  0  0  0  0  0  0  0  0  0  0
  1  2  1  0  0  0
  2  3  2  0  0  0
  3  4  1  0  0  0
  4  5  2  0  0  0
  5  8  1  0  0  0
  5  6  1  0  0  0
  8  9  1  0  0  0
  9 10  2  0  0  0
  9 12  1  0  0  0
 12 13  2  0  0  0
 13 14  1  0  0  0
 13 15  1  0  0  0
 15 16  2  0  0  0
 16 17  1  0  0  0
 17 18  2  0  0  0
 18 12  1  0  0  0
  6  7  2  0  0  0
  7 19  1  0  0  0
  7  2  1  0  0  0
 19 20  1  0  0  0
 20 21  1  0  0  0
 21 22  2  0  0  0
 22 23  1  0  0  0
 23 24  2  0  0  0
 23 25  1  0  0  0
 25 26  1  0  0  0
 26 27  2  0  0  0
 27 28  1  0  0  0
 28 29  2  0  0  0
 29 30  1  0  0  0
 30 31  2  0  0  0
 30 25  1  0  0  0
 31 21  1  0  0  0
  8 11  1  0  0  0
M  END
>  <minimizedAffinity>
-8.60599

>  <minimizedRMSD>
1.24699

$$$$
ChemDiv-D439-4251 MCULE-6269177205 MolPort-007-706-799 PubChem-46268381 ZINC000021797229 ZINC21797229


 36 39  0  0  0  0  0  0  0  0999 V2000
   17.3176   -9.9560   14.3850 C   0  0  0  0  0  0  0  0  0  0  0  0
   16.8577   -9.1990   15.4688 C   0  0  0  0  0  0  0  0  0  0  0  0
   16.9741   -9.6633   16.7854 C   0  0  0  0  0  0  0  0  0  0  0  0
   17.5605  -10.9071   17.0202 C   0  0  0  0  0  0  0  0  0  0  0  0
   18.0277  -11.6776   15.9553 C   0  0  0  0  0  0  0  0  0  0  0  0
   17.9149  -11.2192   14.6391 C   0  0  0  0  0  0  0  0  0  0  0  0
   18.4483  -12.1062   13.5675 C   0  0  0  0  0  0  0  0  0  0  0  0
   16.5020   -8.9010   17.9037 N   0  0  0  0  0  0  0  0  0  0  0  0
   15.5230   -7.8546   17.8778 C   0  0  0  0  0  0  0  0  0  0  0  0
   14.9806   -7.4925   16.8005 O   0  0  0  0  0  0  0  0  0  0  0  0
   16.8910   -9.1191   18.7814 H   0  0  0  0  0  0  0  0  0  0  0  0
   15.1076   -7.2125   19.1563 C   0  0  0  0  0  0  0  0  0  0  0  0
   13.8702   -6.5311   18.9816 O   0  0  0  0  0  0  0  0  0  0  0  0
   12.6572   -7.1505   18.6407 C   0  0  0  0  0  0  0  0  0  0  0  0
   12.1390   -8.2918   19.3074 C   0  0  0  0  0  0  0  0  0  0  0  0
   12.8233   -8.8724   20.5053 C   0  0  0  0  0  0  0  0  0  0  0  0
   10.9204   -8.8538   18.8718 C   0  0  0  0  0  0  0  0  0  0  0  0
   10.3334  -10.0575   19.5307 C   0  0  0  0  0  0  0  0  0  0  0  0
   10.2224   -8.2770   17.8089 C   0  0  0  0  0  0  0  0  0  0  0  0
   10.7212   -7.1424   17.1723 C   0  0  0  0  0  0  0  0  0  0  0  0
   11.9285   -6.5840   17.5897 C   0  0  0  0  0  0  0  0  0  0  0  0
   17.1487   -9.3939   13.1093 O   0  0  0  0  0  0  0  0  0  0  0  0
   16.3591   -9.9426   12.0637 C   0  0  0  0  0  0  0  0  0  0  0  0
   18.6590   -8.2877    7.3606 N   0  0  0  0  0  0  0  0  0  0  0  0
   19.5679   -7.4493    7.9127 C   0  0  0  0  0  0  0  0  0  0  0  0
   19.4739   -7.4458    9.2711 N   0  0  0  0  0  0  0  0  0  0  0  0
   18.4670   -8.3156    9.4853 C   0  0  0  0  0  0  0  0  0  0  0  0
   17.9690   -8.6658   10.6962 N   0  0  0  0  0  0  0  0  0  0  0  0
   16.9412   -9.5645   10.7492 C   0  0  0  0  0  0  0  0  0  0  0  0
   16.3989  -10.1037    9.5647 C   0  0  0  0  0  0  0  0  0  0  0  0
   16.9449   -9.7112    8.3363 C   0  0  0  0  0  0  0  0  0  0  0  0
   16.4910  -10.1735    7.2566 O   0  0  0  0  0  0  0  0  0  0  0  0
   17.9724   -8.8206    8.3537 N   0  0  0  0  0  0  0  0  0  0  0  0
   18.4490   -8.5222    5.9380 C   0  0  0  0  0  0  0  0  0  0  0  0
   19.2906   -8.0520    3.6598 C   0  0  0  0  0  0  0  0  0  0  0  0
   19.6044   -7.9525    5.1372 C   0  0  0  0  0  0  0  0  0  0  0  0
 35 36  1  0  0  0
 36 34  1  0  0  0
 34 24  1  0  0  0
 24 25  1  0  0  0
 25 26  2  0  0  0
 26 27  1  0  0  0
 27 28  2  0  0  0
 28 29  1  0  0  0
 29 23  1  0  0  0
 29 30  2  0  0  0
 23 22  1  0  0  0
 22  1  1  0  0  0
  1  2  2  0  0  0
  2  3  1  0  0  0
  3  8  1  0  0  0
  3  4  2  0  0  0
  8  9  1  0  0  0
  9 10  2  0  0  0
  9 12  1  0  0  0
 12 13  1  0  0  0
 13 14  1  0  0  0
 14 15  2  0  0  0
 15 16  1  0  0  0
 15 17  1  0  0  0
 17 18  1  0  0  0
 17 19  2  0  0  0
 19 20  1  0  0  0
 20 21  2  0  0  0
 21 14  1  0  0  0
  4  5  1  0  0  0
  5  6  2  0  0  0
  6  7  1  0  0  0
  6  1  1  0  0  0
 30 31  1  0  0  0
 31 32  2  0  0  0
 31 33  1  0  0  0
 33 24  1  0  0  0
 33 27  1  0  0  0
  8 11  1  0  0  0
M  END
>  <minimizedAffinity>
-8.59052

>  <minimizedRMSD>
1.69112

$$$$
ChemDiv-G357-1530 MCULE-8070987370 MolPort-007-847-570 PubChem-46343417 ZINC000021632603 ZINC21632603


 33 36  0  0  0  0  0  0  0  0999 V2000
   16.3160   -8.7681   16.8711 C   0  0  0  0  0  0  0  0  0  0  0  0
   16.9520  -10.0100   16.7721 C   0  0  0  0  0  0  0  0  0  0  0  0
   17.3414  -10.5074   15.5253 C   0  0  0  0  0  0  0  0  0  0  0  0
   17.0996   -9.7661   14.3599 C   0  0  0  0  0  0  0  0  0  0  0  0
   16.4623   -8.5226   14.4584 C   0  0  0  0  0  0  0  0  0  0  0  0
   16.0721   -8.0272   15.7056 C   0  0  0  0  0  0  0  0  0  0  0  0
   14.7284   -7.5744   18.4920 C   0  0  0  0  0  0  0  0  0  0  0  0
   13.8910   -7.2633   17.6043 O   0  0  0  0  0  0  0  0  0  0  0  0
   15.9239   -8.2959   18.1669 N   0  0  0  0  0  0  0  0  0  0  0  0
   16.5397   -8.4869   18.9109 H   0  0  0  0  0  0  0  0  0  0  0  0
   14.4553   -7.2082   19.9104 C   0  0  0  0  0  0  0  0  0  0  0  0
   13.3372   -6.3310   19.9842 O   0  0  0  0  0  0  0  0  0  0  0  0
   10.5572   -5.2035   19.7708 Cl  0  0  0  0  0  0  0  0  0  0  0  0
   11.5351   -5.2878   21.2248 C   0  0  0  0  0  0  0  0  0  0  0  0
   12.8236   -5.8444   21.1931 C   0  0  0  0  0  0  0  0  0  0  0  0
   13.5791   -5.8925   22.3769 C   0  0  0  0  0  0  0  0  0  0  0  0
   13.0550   -5.3961   23.5732 C   0  0  0  0  0  0  0  0  0  0  0  0
   11.7717   -4.8463   23.5969 C   0  0  0  0  0  0  0  0  0  0  0  0
   11.0134   -4.7926   22.4248 C   0  0  0  0  0  0  0  0  0  0  0  0
   17.5099  -10.2835   13.0448 C   0  0  0  0  0  0  0  0  0  0  0  0
   17.9652  -11.4565   12.9408 O   0  0  0  0  0  0  0  0  0  0  0  0
   17.3963   -9.4698   11.9148 O   0  0  0  0  0  0  0  0  0  0  0  0
   18.5197   -8.8124   11.3469 C   0  0  0  0  0  0  0  0  0  0  0  0
   18.4049   -8.8238    9.8642 C   0  0  0  0  0  0  0  0  0  0  0  0
   17.3992   -9.5849    9.2461 C   0  0  0  0  0  0  0  0  0  0  0  0
   17.2966   -9.5563    7.8504 C   0  0  0  0  0  0  0  0  0  0  0  0
   16.4049  -10.2311    7.2687 O   0  0  0  0  0  0  0  0  0  0  0  0
   18.1689   -8.7876    7.1415 N   0  0  0  0  0  0  0  0  0  0  0  0
   18.2044   -8.6468    5.7881 C   0  0  0  0  0  0  0  0  0  0  0  0
   19.2053   -7.7836    5.3269 C   0  0  0  0  0  0  0  0  0  0  0  0
   20.0514   -7.2011    6.6774 S   0  0  0  0  0  0  0  0  0  0  0  0
   19.1172   -8.0602    7.7648 C   0  0  0  0  0  0  0  0  0  0  0  0
   19.2500   -8.0622    9.1140 N   0  0  0  0  0  0  0  0  0  0  0  0
 13 14  1  0  0  0
 14 15  2  0  0  0
 15 12  1  0  0  0
 15 16  1  0  0  0
 12 11  1  0  0  0
 11  7  1  0  0  0
  7  8  2  0  0  0
  7  9  1  0  0  0
  9  1  1  0  0  0
  1  2  2  0  0  0
  2  3  1  0  0  0
  3  4  2  0  0  0
  4  5  1  0  0  0
  4 20  1  0  0  0
  5  6  2  0  0  0
  6  1  1  0  0  0
 20 21  2  0  0  0
 20 22  1  0  0  0
 22 23  1  0  0  0
 23 24  1  0  0  0
 24 25  2  0  0  0
 25 26  1  0  0  0
 26 27  2  0  0  0
 26 28  1  0  0  0
 28 29  1  0  0  0
 29 30  2  0  0  0
 30 31  1  0  0  0
 31 32  1  0  0  0
 32 33  2  0  0  0
 32 28  1  0  0  0
 33 24  1  0  0  0
 16 17  2  0  0  0
 17 18  1  0  0  0
 18 19  2  0  0  0
 19 14  1  0  0  0
  9 10  1  0  0  0
M  END
>  <minimizedAffinity>
-8.58968

>  <minimizedRMSD>
2.62517

$$$$
ChemDiv-G756-0834 MCULE-8213763481 MolPort-007-879-426 PubChem-46356238 ZINC000033067932 ZINC33067932


 37 40  0  0  0  0  0  0  0  0999 V2000
   16.9566   -9.5863   16.7775 C   0  0  0  0  0  0  0  0  0  0  0  0
   17.5782  -10.7966   17.0835 C   0  0  0  0  0  0  0  0  0  0  0  0
   18.0963  -11.5993   16.0665 C   0  0  0  0  0  0  0  0  0  0  0  0
   17.9994  -11.2069   14.7276 C   0  0  0  0  0  0  0  0  0  0  0  0
   18.5638  -12.1381   13.7097 C   0  0  0  0  0  0  0  0  0  0  0  0
   17.3591   -9.9815   14.3993 C   0  0  0  0  0  0  0  0  0  0  0  0
   16.8503   -9.1901   15.4367 C   0  0  0  0  0  0  0  0  0  0  0  0
   14.7037   -7.4547   19.0100 N   0  0  0  0  0  0  0  0  0  0  0  0
   15.2131   -8.0097   17.7900 C   0  0  0  0  0  0  0  0  0  0  0  0
   14.6365   -7.7905   16.6881 O   0  0  0  0  0  0  0  0  0  0  0  0
   16.4003   -8.8068   17.8452 N   0  0  0  0  0  0  0  0  0  0  0  0
   15.2221   -7.6439   19.8253 H   0  0  0  0  0  0  0  0  0  0  0  0
   16.8840   -8.8216   18.7025 H   0  0  0  0  0  0  0  0  0  0  0  0
   13.2429   -6.0414   20.4266 C   0  0  0  0  0  0  0  0  0  0  0  0
   13.5212   -6.6527   19.1782 C   0  0  0  0  0  0  0  0  0  0  0  0
   12.6096   -6.4938   18.1209 C   0  0  0  0  0  0  0  0  0  0  0  0
   11.4463   -5.7410   18.2837 C   0  0  0  0  0  0  0  0  0  0  0  0
   11.1766   -5.1376   19.5115 C   0  0  0  0  0  0  0  0  0  0  0  0
   12.0681   -5.2892   20.5737 C   0  0  0  0  0  0  0  0  0  0  0  0
   14.1437   -6.1577   21.5971 C   0  0  0  0  0  0  0  0  0  0  0  0
   15.3983   -6.1294   21.4541 O   0  0  0  0  0  0  0  0  0  0  0  0
   14.2702   -5.8134   24.0341 C   0  0  0  0  0  0  0  0  0  0  0  0
   13.5940   -6.2812   22.8761 O   0  0  0  0  0  0  0  0  0  0  0  0
   17.1813   -9.4987   13.0917 O   0  0  0  0  0  0  0  0  0  0  0  0
   16.2562  -10.0145   12.1418 C   0  0  0  0  0  0  0  0  0  0  0  0
   16.7159   -9.7088   10.7568 C   0  0  0  0  0  0  0  0  0  0  0  0
   16.0094  -10.2158    9.6716 C   0  0  0  0  0  0  0  0  0  0  0  0
   16.4632   -9.9372    8.3830 C   0  0  0  0  0  0  0  0  0  0  0  0
   15.8225  -10.3998    7.3993 O   0  0  0  0  0  0  0  0  0  0  0  0
   17.5853   -9.1729    8.1998 N   0  0  0  0  0  0  0  0  0  0  0  0
   18.0194   -8.8984    6.9325 C   0  0  0  0  0  0  0  0  0  0  0  0
   19.1471   -8.1076    6.7193 C   0  0  0  0  0  0  0  0  0  0  0  0
   19.8390   -7.5936    7.8148 C   0  0  0  0  0  0  0  0  0  0  0  0
   19.4065   -7.8762    9.1080 C   0  0  0  0  0  0  0  0  0  0  0  0
   20.1618   -7.3150   10.2680 C   0  0  0  0  0  0  0  0  0  0  0  0
   18.2667   -8.6767    9.2912 C   0  0  0  0  0  0  0  0  0  0  0  0
   17.8298   -8.9595   10.5484 N   0  0  0  0  0  0  0  0  0  0  0  0
 22 23  1  0  0  0
 23 20  1  0  0  0
 20 21  2  0  0  0
 20 14  1  0  0  0
 14 15  2  0  0  0
 15  8  1  0  0  0
 15 16  1  0  0  0
  8  9  1  0  0  0
  9 10  2  0  0  0
  9 11  1  0  0  0
 11  1  1  0  0  0
  1  2  2  0  0  0
  2  3  1  0  0  0
  3  4  2  0  0  0
  4  5  1  0  0  0
  4  6  1  0  0  0
  6 24  1  0  0  0
  6  7  2  0  0  0
 24 25  1  0  0  0
 25 26  1  0  0  0
 26 27  2  0  0  0
 27 28  1  0  0  0
 28 29  2  0  0  0
 28 30  1  0  0  0
 30 31  1  0  0  0
 31 32  2  0  0  0
 32 33  1  0  0  0
 33 34  2  0  0  0
 34 35  1  0  0  0
 34 36  1  0  0  0
 36 37  2  0  0  0
 36 30  1  0  0  0
 37 26  1  0  0  0
  7  1  1  0  0  0
 16 17  2  0  0  0
 17 18  1  0  0  0
 18 19  2  0  0  0
 19 14  1  0  0  0
  8 12  1  0  0  0
 11 13  1  0  0  0
M  END
>  <minimizedAffinity>
-8.58363

>  <minimizedRMSD>
1.11436

$$$$
ChemDiv-G357-0252 MCULE-5498169252 MolPort-007-847-109 PubChem-46343241 ZINC000015771480


 34 37  0  0  0  0  0  0  0  0999 V2000
   18.2206  -10.5258   13.9932 C   0  0  0  0  0  0  0  0  0  0  0  0
   18.8466  -11.5970   14.2260 O   0  0  0  0  0  0  0  0  0  0  0  0
   17.4593   -9.8684   15.0676 C   0  0  0  0  0  0  0  0  0  0  0  0
   17.3560  -10.4604   16.3341 C   0  0  0  0  0  0  0  0  0  0  0  0
   16.6311   -9.8317   17.3503 C   0  0  0  0  0  0  0  0  0  0  0  0
   16.0010   -8.6054   17.1160 C   0  0  0  0  0  0  0  0  0  0  0  0
   16.1040   -8.0128   15.8488 C   0  0  0  0  0  0  0  0  0  0  0  0
   16.8283   -8.6403   14.8318 C   0  0  0  0  0  0  0  0  0  0  0  0
   15.2660   -7.9927   18.1842 N   0  0  0  0  0  0  0  0  0  0  0  0
   13.9924   -7.3364   18.0888 C   0  0  0  0  0  0  0  0  0  0  0  0
   13.3997   -7.2432   16.9795 O   0  0  0  0  0  0  0  0  0  0  0  0
   15.6783   -8.0257   19.0776 H   0  0  0  0  0  0  0  0  0  0  0  0
   13.3729   -6.7656   19.2981 C   0  0  0  0  0  0  0  0  0  0  0  0
   13.5648   -7.3743   20.5472 C   0  0  0  0  0  0  0  0  0  0  0  0
   12.9776   -6.8337   21.6949 C   0  0  0  0  0  0  0  0  0  0  0  0
   12.1939   -5.6806   21.6020 C   0  0  0  0  0  0  0  0  0  0  0  0
   11.9975   -5.0674   20.3618 C   0  0  0  0  0  0  0  0  0  0  0  0
   12.5847   -5.6079   19.2140 C   0  0  0  0  0  0  0  0  0  0  0  0
   11.6250   -5.1570   22.7140 F   0  0  0  0  0  0  0  0  0  0  0  0
   18.2462   -9.9589   12.7170 O   0  0  0  0  0  0  0  0  0  0  0  0
   17.0608   -9.5385   12.0579 C   0  0  0  0  0  0  0  0  0  0  0  0
   17.7829   -9.0548    7.9318 N   0  0  0  0  0  0  0  0  0  0  0  0
   16.8480   -9.9656    8.3114 C   0  0  0  0  0  0  0  0  0  0  0  0
   16.2129  -10.6361    7.4547 O   0  0  0  0  0  0  0  0  0  0  0  0
   16.5980  -10.1476    9.6760 C   0  0  0  0  0  0  0  0  0  0  0  0
   17.3275   -9.3853   10.6034 C   0  0  0  0  0  0  0  0  0  0  0  0
   18.2485   -8.4764   10.1749 N   0  0  0  0  0  0  0  0  0  0  0  0
   18.4626   -8.3296    8.8447 C   0  0  0  0  0  0  0  0  0  0  0  0
   19.5466   -7.2718    8.1203 S   0  0  0  0  0  0  0  0  0  0  0  0
   19.0695   -7.8301    6.5845 C   0  0  0  0  0  0  0  0  0  0  0  0
   18.1113   -8.7843    6.6706 N   0  0  0  0  0  0  0  0  0  0  0  0
   19.6006   -7.3341    5.2801 C   0  0  0  0  0  0  0  0  0  0  0  0
   21.1092   -7.1970    5.3389 C   0  0  0  0  0  0  0  0  0  0  0  0
   19.2092   -8.2679    4.1513 C   0  0  0  0  0  0  0  0  0  0  0  0
 22 23  1  0  0  0
 23 24  2  0  0  0
 23 25  1  0  0  0
 25 26  2  0  0  0
 26 27  1  0  0  0
 27 28  2  0  0  0
 28 29  1  0  0  0
 29 30  1  0  0  0
 30 32  1  0  0  0
 32 33  1  0  0  0
 32 34  1  0  0  0
 30 31  2  0  0  0
 26 21  1  0  0  0
 21 20  1  0  0  0
 20  1  1  0  0  0
  1  2  2  0  0  0
  1  3  1  0  0  0
  3  4  2  0  0  0
  4  5  1  0  0  0
  5  6  2  0  0  0
  6  7  1  0  0  0
  7  8  2  0  0  0
  6  9  1  0  0  0
  9 10  1  0  0  0
 10 11  2  0  0  0
 10 13  1  0  0  0
 13 14  2  0  0  0
 14 15  1  0  0  0
 15 16  2  0  0  0
 16 17  1  0  0  0
 17 18  2  0  0  0
 16 19  1  0  0  0
 28 22  1  0  0  0
  8  3  1  0  0  0
 18 13  1  0  0  0
 31 22  1  0  0  0
  9 12  1  0  0  0
M  END
>  <minimizedAffinity>
-8.57643

>  <minimizedRMSD>
1.46340

$$$$
ChemDiv-C679-4720 MCULE-5320017376 MolPort-007-655-978 PubChem-20874310 ZINC000020859335


 35 38  0  0  0  0  0  0  0  0999 V2000
   17.0004   -9.7084   14.2981 C   0  0  0  0  0  0  0  0  0  0  0  0
   17.7391  -10.8840   14.5042 C   0  0  0  0  0  0  0  0  0  0  0  0
   17.9831  -11.3427   15.8009 C   0  0  0  0  0  0  0  0  0  0  0  0
   17.4917  -10.6304   16.8977 C   0  0  0  0  0  0  0  0  0  0  0  0
   16.7529   -9.4582   16.7071 C   0  0  0  0  0  0  0  0  0  0  0  0
   16.5105   -9.0038   15.4019 C   0  0  0  0  0  0  0  0  0  0  0  0
   16.2664   -8.7544   17.8580 N   0  0  0  0  0  0  0  0  0  0  0  0
   15.1484   -7.8580   17.9051 C   0  0  0  0  0  0  0  0  0  0  0  0
   14.4511   -7.6264   16.8820 O   0  0  0  0  0  0  0  0  0  0  0  0
   16.7500   -8.9019   18.7028 H   0  0  0  0  0  0  0  0  0  0  0  0
   14.7802   -7.2213   19.1965 C   0  0  0  0  0  0  0  0  0  0  0  0
   13.3654   -7.2058   19.3326 O   0  0  0  0  0  0  0  0  0  0  0  0
   12.7047   -6.3917   20.2560 C   0  0  0  0  0  0  0  0  0  0  0  0
   11.7827   -5.4486   19.7891 C   0  0  0  0  0  0  0  0  0  0  0  0
   11.1061   -4.6179   20.6874 C   0  0  0  0  0  0  0  0  0  0  0  0
   11.3489   -4.7266   22.0594 C   0  0  0  0  0  0  0  0  0  0  0  0
   12.2679   -5.6662   22.5342 C   0  0  0  0  0  0  0  0  0  0  0  0
   12.9445   -6.4970   21.6363 C   0  0  0  0  0  0  0  0  0  0  0  0
   10.5016   -3.6858   23.1830 Cl  0  0  0  0  0  0  0  0  0  0  0  0
   16.7402   -9.2208   13.0151 O   0  0  0  0  0  0  0  0  0  0  0  0
   16.0948   -9.9973   12.0144 C   0  0  0  0  0  0  0  0  0  0  0  0
   17.7172   -9.0454    8.2408 N   0  0  0  0  0  0  0  0  0  0  0  0
   18.3223   -8.6393    7.1273 N   0  0  0  0  0  0  0  0  0  0  0  0
   19.3003   -7.7360    7.3810 C   0  0  0  0  0  0  0  0  0  0  0  0
   19.4483   -7.4029    9.0385 S   0  0  0  0  0  0  0  0  0  0  0  0
   18.2009   -8.4789    9.3664 C   0  0  0  0  0  0  0  0  0  0  0  0
   17.6965   -8.7777   10.5885 N   0  0  0  0  0  0  0  0  0  0  0  0
   16.6778   -9.6787   10.6845 C   0  0  0  0  0  0  0  0  0  0  0  0
   16.1506  -10.2796    9.5298 C   0  0  0  0  0  0  0  0  0  0  0  0
   16.6989   -9.9440    8.2869 C   0  0  0  0  0  0  0  0  0  0  0  0
   16.2504  -10.4677    7.2326 O   0  0  0  0  0  0  0  0  0  0  0  0
   20.1361   -7.1087    6.3180 C   0  0  0  0  0  0  0  0  0  0  0  0
   20.3647   -8.0661    5.1559 C   0  0  0  0  0  0  0  0  0  0  0  0
   19.6524   -7.5931    3.8983 C   0  0  0  0  0  0  0  0  0  0  0  0
   18.3621   -8.3641    3.6955 C   0  0  0  0  0  0  0  0  0  0  0  0
 22 23  1  0  0  0
 23 24  2  0  0  0
 24 25  1  0  0  0
 25 26  1  0  0  0
 26 27  2  0  0  0
 27 28  1  0  0  0
 28 21  1  0  0  0
 21 20  1  0  0  0
 20  1  1  0  0  0
  1  2  2  0  0  0
  2  3  1  0  0  0
  3  4  2  0  0  0
  4  5  1  0  0  0
  5  6  2  0  0  0
  5  7  1  0  0  0
  7  8  1  0  0  0
  8 11  1  0  0  0
 11 12  1  0  0  0
 12 13  1  0  0  0
 13 14  2  0  0  0
 14 15  1  0  0  0
 15 16  2  0  0  0
 16 17  1  0  0  0
 17 18  2  0  0  0
 16 19  1  0  0  0
  8  9  2  0  0  0
 28 29  2  0  0  0
 29 30  1  0  0  0
 30 31  2  0  0  0
 24 32  1  0  0  0
 32 33  1  0  0  0
 33 34  1  0  0  0
 34 35  1  0  0  0
 26 22  1  0  0  0
  6  1  1  0  0  0
 18 13  1  0  0  0
 30 22  1  0  0  0
  7 10  1  0  0  0
M  END
>  <minimizedAffinity>
-8.56544

>  <minimizedRMSD>
1.73216

$$$$
ChemDiv-G357-3514 CHEMBL1403942 MCULE-6435700464 MolPort-007-848-021 PubChem-16027675 ZINC000008607852


 35 38  0  0  0  0  0  0  0  0999 V2000
   17.9306  -10.7081   14.6940 C   0  0  0  0  0  0  0  0  0  0  0  0
   17.5419   -9.3654   14.6033 C   0  0  0  0  0  0  0  0  0  0  0  0
   17.0132   -8.7074   15.7170 C   0  0  0  0  0  0  0  0  0  0  0  0
   16.8668   -9.3837   16.9371 C   0  0  0  0  0  0  0  0  0  0  0  0
   17.2548  -10.7243   17.0266 C   0  0  0  0  0  0  0  0  0  0  0  0
   17.7835  -11.3838   15.9132 C   0  0  0  0  0  0  0  0  0  0  0  0
   16.3262   -8.7433   18.1004 N   0  0  0  0  0  0  0  0  0  0  0  0
   15.2915   -7.7521   18.1315 C   0  0  0  0  0  0  0  0  0  0  0  0
   14.7537   -7.3339   17.0721 O   0  0  0  0  0  0  0  0  0  0  0  0
   16.7053   -9.0125   18.9682 H   0  0  0  0  0  0  0  0  0  0  0  0
   14.8227   -7.2287   19.4455 C   0  0  0  0  0  0  0  0  0  0  0  0
   13.5305   -6.6451   19.3116 O   0  0  0  0  0  0  0  0  0  0  0  0
   12.3909   -7.3745   18.9544 C   0  0  0  0  0  0  0  0  0  0  0  0
   12.0472   -8.5722   19.6034 C   0  0  0  0  0  0  0  0  0  0  0  0
   10.9013   -9.2764   19.2233 C   0  0  0  0  0  0  0  0  0  0  0  0
   10.0908   -8.7881   18.1948 C   0  0  0  0  0  0  0  0  0  0  0  0
   10.4261   -7.5956   17.5473 C   0  0  0  0  0  0  0  0  0  0  0  0
   11.5727   -6.8914   17.9273 C   0  0  0  0  0  0  0  0  0  0  0  0
   18.4865  -11.3969   13.5182 C   0  0  0  0  0  0  0  0  0  0  0  0
   18.8697  -12.5960   13.6104 O   0  0  0  0  0  0  0  0  0  0  0  0
   18.5876  -10.7172   12.3022 O   0  0  0  0  0  0  0  0  0  0  0  0
   17.6482   -9.7250   11.9157 C   0  0  0  0  0  0  0  0  0  0  0  0
   17.9722   -8.9252    7.7885 N   0  0  0  0  0  0  0  0  0  0  0  0
   18.1942   -8.5727    6.5246 N   0  0  0  0  0  0  0  0  0  0  0  0
   19.2318   -7.7081    6.4129 C   0  0  0  0  0  0  0  0  0  0  0  0
   19.9326   -7.3533    7.9176 S   0  0  0  0  0  0  0  0  0  0  0  0
   18.8196   -8.3590    8.6733 C   0  0  0  0  0  0  0  0  0  0  0  0
   18.7353   -8.6105   10.0025 N   0  0  0  0  0  0  0  0  0  0  0  0
   17.7735   -9.4625   10.4578 C   0  0  0  0  0  0  0  0  0  0  0  0
   16.8724  -10.0601    9.5610 C   0  0  0  0  0  0  0  0  0  0  0  0
   16.9929   -9.7748    8.1965 C   0  0  0  0  0  0  0  0  0  0  0  0
   16.2034  -10.2981    7.3662 O   0  0  0  0  0  0  0  0  0  0  0  0
   19.7188   -7.1759    5.1080 C   0  0  0  0  0  0  0  0  0  0  0  0
   19.8152   -8.2847    4.0726 C   0  0  0  0  0  0  0  0  0  0  0  0
   18.7496   -8.1127    3.0062 C   0  0  0  0  0  0  0  0  0  0  0  0
 23 24  1  0  0  0
 24 25  2  0  0  0
 25 26  1  0  0  0
 26 27  1  0  0  0
 27 28  2  0  0  0
 28 29  1  0  0  0
 29 22  1  0  0  0
 22 21  1  0  0  0
 21 19  1  0  0  0
 19 20  2  0  0  0
 19  1  1  0  0  0
  1  2  2  0  0  0
  2  3  1  0  0  0
  3  4  2  0  0  0
  4  5  1  0  0  0
  5  6  2  0  0  0
  4  7  1  0  0  0
  7  8  1  0  0  0
  8 11  1  0  0  0
 11 12  1  0  0  0
 12 13  1  0  0  0
 13 14  2  0  0  0
 14 15  1  0  0  0
 15 16  2  0  0  0
 16 17  1  0  0  0
 17 18  2  0  0  0
  8  9  2  0  0  0
 29 30  2  0  0  0
 30 31  1  0  0  0
 31 32  2  0  0  0
 25 33  1  0  0  0
 33 34  1  0  0  0
 34 35  1  0  0  0
 27 23  1  0  0  0
  6  1  1  0  0  0
 18 13  1  0  0  0
 31 23  1  0  0  0
  7 10  1  0  0  0
M  END
>  <minimizedAffinity>
-8.56053

>  <minimizedRMSD>
1.44508

$$$$
ChemDiv-G357-2997 MCULE-6744272725 MolPort-007-847-884 PubChem-46343583 ZINC000015772150 ZINC15772150


 32 35  0  0  0  0  0  0  0  0999 V2000
   17.0095  -10.2357   15.4557 C   0  0  0  0  0  0  0  0  0  0  0  0
   17.1617  -10.3359   16.8455 C   0  0  0  0  0  0  0  0  0  0  0  0
   16.5429   -9.4117   17.6919 C   0  0  0  0  0  0  0  0  0  0  0  0
   15.7645   -8.3773   17.1630 C   0  0  0  0  0  0  0  0  0  0  0  0
   15.6131   -8.2759   15.7722 C   0  0  0  0  0  0  0  0  0  0  0  0
   16.2312   -9.1991   14.9246 C   0  0  0  0  0  0  0  0  0  0  0  0
   15.1483   -7.4484   18.0650 N   0  0  0  0  0  0  0  0  0  0  0  0
   13.7658   -7.4000   18.4460 C   0  0  0  0  0  0  0  0  0  0  0  0
   12.9591   -8.2654   18.0081 O   0  0  0  0  0  0  0  0  0  0  0  0
   15.7380   -6.7700   18.4666 H   0  0  0  0  0  0  0  0  0  0  0  0
   13.2739   -6.3683   19.3916 C   0  0  0  0  0  0  0  0  0  0  0  0
   13.6369   -6.3199   20.7626 C   0  0  0  0  0  0  0  0  0  0  0  0
   14.7809   -7.4293   21.5060 Cl  0  0  0  0  0  0  0  0  0  0  0  0
   13.1130   -5.3163   21.5850 C   0  0  0  0  0  0  0  0  0  0  0  0
   12.2382   -4.3587   21.0716 C   0  0  0  0  0  0  0  0  0  0  0  0
   11.8842   -4.3922   19.7242 C   0  0  0  0  0  0  0  0  0  0  0  0
   12.4002   -5.3878   18.8931 C   0  0  0  0  0  0  0  0  0  0  0  0
   17.6578  -11.2060   14.5590 C   0  0  0  0  0  0  0  0  0  0  0  0
   18.1477  -12.2708   15.0275 O   0  0  0  0  0  0  0  0  0  0  0  0
   17.7275  -10.9425   13.1892 O   0  0  0  0  0  0  0  0  0  0  0  0
   18.3501   -9.7723   12.6798 C   0  0  0  0  0  0  0  0  0  0  0  0
   18.5329   -7.7902    5.6523 C   0  0  0  0  0  0  0  0  0  0  0  0
   18.2875   -8.2850    7.0323 C   0  0  0  0  0  0  0  0  0  0  0  0
   19.1807   -8.1586    8.1017 C   0  0  0  0  0  0  0  0  0  0  0  0
   18.4647   -8.7735    9.1110 C   0  0  0  0  0  0  0  0  0  0  0  0
   18.8357   -8.9509   10.4027 N   0  0  0  0  0  0  0  0  0  0  0  0
   17.9780   -9.5924   11.2516 C   0  0  0  0  0  0  0  0  0  0  0  0
   16.7238  -10.0468   10.7946 C   0  0  0  0  0  0  0  0  0  0  0  0
   16.3856   -9.8397    9.4516 C   0  0  0  0  0  0  0  0  0  0  0  0
   15.2794  -10.2302    8.9947 O   0  0  0  0  0  0  0  0  0  0  0  0
   17.2834   -9.2053    8.6604 N   0  0  0  0  0  0  0  0  0  0  0  0
   17.1857   -8.9058    7.4057 O   0  0  0  0  0  0  0  0  0  0  0  0
 22 23  1  0  0  0
 23 24  2  0  0  0
 24 25  1  0  0  0
 25 26  2  0  0  0
 26 27  1  0  0  0
 27 21  1  0  0  0
 27 28  2  0  0  0
 21 20  1  0  0  0
 20 18  1  0  0  0
 18 19  2  0  0  0
 18  1  1  0  0  0
  1  2  2  0  0  0
  2  3  1  0  0  0
  3  4  2  0  0  0
  4  7  1  0  0  0
  4  5  1  0  0  0
  7  8  1  0  0  0
  8  9  2  0  0  0
  8 11  1  0  0  0
 11 12  2  0  0  0
 12 13  1  0  0  0
 12 14  1  0  0  0
 14 15  2  0  0  0
 15 16  1  0  0  0
 16 17  2  0  0  0
 17 11  1  0  0  0
  5  6  2  0  0  0
  6  1  1  0  0  0
 28 29  1  0  0  0
 29 30  2  0  0  0
 29 31  1  0  0  0
 31 32  1  0  0  0
 31 25  1  0  0  0
 32 23  1  0  0  0
  7 10  1  0  0  0
M  END
>  <minimizedAffinity>
-8.55826

>  <minimizedRMSD>
1.60955

$$$$
ChemDiv-G355-3252 MCULE-5655690513 MolPort-010-743-017 PubChem-50793974 ZINC000035428387 ZINC35428387


 29 32  0  0  0  0  0  0  0  0999 V2000
   17.4198  -10.2268   14.2679 C   0  0  0  0  0  0  0  0  0  0  0  0
   16.7977   -9.5088   15.2962 C   0  0  0  0  0  0  0  0  0  0  0  0
   16.8151   -9.9660   16.6204 C   0  0  0  0  0  0  0  0  0  0  0  0
   17.4658  -11.1635   16.9193 C   0  0  0  0  0  0  0  0  0  0  0  0
   18.0960  -11.8935   15.9109 C   0  0  0  0  0  0  0  0  0  0  0  0
   18.0830  -11.4414   14.5876 C   0  0  0  0  0  0  0  0  0  0  0  0
   18.7940  -12.2795   13.5811 C   0  0  0  0  0  0  0  0  0  0  0  0
   16.1757   -9.2436   17.6815 N   0  0  0  0  0  0  0  0  0  0  0  0
   15.3224   -8.0975   17.5488 C   0  0  0  0  0  0  0  0  0  0  0  0
   15.0852   -7.5944   16.4179 O   0  0  0  0  0  0  0  0  0  0  0  0
   16.3394   -9.5677   18.5966 H   0  0  0  0  0  0  0  0  0  0  0  0
   14.7197   -7.5017   18.7464 C   0  0  0  0  0  0  0  0  0  0  0  0
   15.2639   -7.5213   20.0211 C   0  0  0  0  0  0  0  0  0  0  0  0
   14.4571   -6.8702   20.9658 C   0  0  0  0  0  0  0  0  0  0  0  0
   13.2785   -6.3366   20.4481 C   0  0  0  0  0  0  0  0  0  0  0  0
   13.2558   -6.6850   18.8023 S   0  0  0  0  0  0  0  0  0  0  0  0
   17.3382   -9.6767   12.9783 O   0  0  0  0  0  0  0  0  0  0  0  0
   18.4158   -9.0878   12.2646 C   0  0  0  0  0  0  0  0  0  0  0  0
   18.8625   -7.9495    5.0636 C   0  0  0  0  0  0  0  0  0  0  0  0
   18.5857   -8.3121    6.4785 C   0  0  0  0  0  0  0  0  0  0  0  0
   19.3493   -7.9026    7.5770 C   0  0  0  0  0  0  0  0  0  0  0  0
   18.6637   -8.5117    8.6106 C   0  0  0  0  0  0  0  0  0  0  0  0
   18.9464   -8.4648    9.9356 N   0  0  0  0  0  0  0  0  0  0  0  0
   18.1379   -9.1416   10.8054 C   0  0  0  0  0  0  0  0  0  0  0  0
   17.0217   -9.8628   10.3333 C   0  0  0  0  0  0  0  0  0  0  0  0
   16.7706   -9.8806    8.9557 C   0  0  0  0  0  0  0  0  0  0  0  0
   15.7888  -10.5125    8.4844 O   0  0  0  0  0  0  0  0  0  0  0  0
   17.6144   -9.1960    8.1466 N   0  0  0  0  0  0  0  0  0  0  0  0
   17.5759   -9.0700    6.8596 O   0  0  0  0  0  0  0  0  0  0  0  0
 19 20  1  0  0  0
 20 21  2  0  0  0
 21 22  1  0  0  0
 22 23  2  0  0  0
 23 24  1  0  0  0
 24 18  1  0  0  0
 24 25  2  0  0  0
 18 17  1  0  0  0
 17  1  1  0  0  0
  1  2  2  0  0  0
  2  3  1  0  0  0
  3  8  1  0  0  0
  3  4  2  0  0  0
  8  9  1  0  0  0
  9 10  2  0  0  0
  9 12  1  0  0  0
 12 13  2  0  0  0
 13 14  1  0  0  0
 14 15  2  0  0  0
 15 16  1  0  0  0
 16 12  1  0  0  0
  4  5  1  0  0  0
  5  6  2  0  0  0
  6  7  1  0  0  0
  6  1  1  0  0  0
 25 26  1  0  0  0
 26 27  2  0  0  0
 26 28  1  0  0  0
 28 29  1  0  0  0
 28 22  1  0  0  0
 29 20  1  0  0  0
  8 11  1  0  0  0
M  END
>  <minimizedAffinity>
-8.55692

>  <minimizedRMSD>
1.01297

$$$$
ChemDiv-C679-4379 MCULE-5376153164 MolPort-007-655-859 PubChem-20874253 ZINC000013368088


 33 36  0  0  0  0  0  0  0  0999 V2000
   17.5019  -10.8099   14.3258 C   0  0  0  0  0  0  0  0  0  0  0  0
   18.2726  -11.8690   14.8306 C   0  0  0  0  0  0  0  0  0  0  0  0
   18.3587  -12.0810   16.2086 C   0  0  0  0  0  0  0  0  0  0  0  0
   17.6773  -11.2368   17.0892 C   0  0  0  0  0  0  0  0  0  0  0  0
   16.9073  -10.1766   16.6002 C   0  0  0  0  0  0  0  0  0  0  0  0
   16.8238   -9.9702   15.2150 C   0  0  0  0  0  0  0  0  0  0  0  0
   16.2262   -9.3304   17.5358 N   0  0  0  0  0  0  0  0  0  0  0  0
   15.4918   -8.1363   17.2364 C   0  0  0  0  0  0  0  0  0  0  0  0
   15.3927   -7.7084   16.0562 O   0  0  0  0  0  0  0  0  0  0  0  0
   16.2671   -9.5971   18.4826 H   0  0  0  0  0  0  0  0  0  0  0  0
   14.8668   -7.3631   18.3460 C   0  0  0  0  0  0  0  0  0  0  0  0
   15.0195   -8.0646   19.5745 O   0  0  0  0  0  0  0  0  0  0  0  0
   15.0809   -7.4509   20.8338 C   0  0  0  0  0  0  0  0  0  0  0  0
   16.2858   -6.8444   21.2069 C   0  0  0  0  0  0  0  0  0  0  0  0
   16.4140   -6.2182   22.4494 C   0  0  0  0  0  0  0  0  0  0  0  0
   15.3321   -6.1886   23.3309 C   0  0  0  0  0  0  0  0  0  0  0  0
   14.1207   -6.7805   22.9680 C   0  0  0  0  0  0  0  0  0  0  0  0
   13.9857   -7.4094   21.7261 C   0  0  0  0  0  0  0  0  0  0  0  0
   12.7831   -7.9427   21.3997 F   0  0  0  0  0  0  0  0  0  0  0  0
   17.3918  -10.5716   12.9537 O   0  0  0  0  0  0  0  0  0  0  0  0
   17.0634   -9.2960   12.4193 C   0  0  0  0  0  0  0  0  0  0  0  0
   17.5608   -9.2946    8.2324 N   0  0  0  0  0  0  0  0  0  0  0  0
   17.8206   -9.1735    6.9329 N   0  0  0  0  0  0  0  0  0  0  0  0
   18.7392   -8.2085    6.6860 C   0  0  0  0  0  0  0  0  0  0  0  0
   19.2858   -7.4671    8.1119 S   0  0  0  0  0  0  0  0  0  0  0  0
   18.2646   -8.4490    9.0142 C   0  0  0  0  0  0  0  0  0  0  0  0
   18.1236   -8.4399   10.3621 N   0  0  0  0  0  0  0  0  0  0  0  0
   17.2510   -9.3102   10.9447 C   0  0  0  0  0  0  0  0  0  0  0  0
   16.5003  -10.1974   10.1559 C   0  0  0  0  0  0  0  0  0  0  0  0
   16.6757  -10.1763    8.7680 C   0  0  0  0  0  0  0  0  0  0  0  0
   16.0209  -10.9624    8.0332 O   0  0  0  0  0  0  0  0  0  0  0  0
   19.2449   -7.8911    5.3234 C   0  0  0  0  0  0  0  0  0  0  0  0
   20.6035   -7.2266    5.4204 C   0  0  0  0  0  0  0  0  0  0  0  0
 22 23  1  0  0  0
 23 24  2  0  0  0
 24 25  1  0  0  0
 25 26  1  0  0  0
 26 27  2  0  0  0
 27 28  1  0  0  0
 28 21  1  0  0  0
 21 20  1  0  0  0
 20  1  1  0  0  0
  1  2  2  0  0  0
  2  3  1  0  0  0
  3  4  2  0  0  0
  4  5  1  0  0  0
  5  6  2  0  0  0
  5  7  1  0  0  0
  7  8  1  0  0  0
  8 11  1  0  0  0
 11 12  1  0  0  0
 12 13  1  0  0  0
 13 14  2  0  0  0
 14 15  1  0  0  0
 15 16  2  0  0  0
 16 17  1  0  0  0
 17 18  2  0  0  0
 18 19  1  0  0  0
  8  9  2  0  0  0
 28 29  2  0  0  0
 29 30  1  0  0  0
 30 31  2  0  0  0
 24 32  1  0  0  0
 32 33  1  0  0  0
 26 22  1  0  0  0
  6  1  1  0  0  0
 18 13  1  0  0  0
 30 22  1  0  0  0
  7 10  1  0  0  0
M  END
>  <minimizedAffinity>
-8.54814

>  <minimizedRMSD>
1.49454

$$$$
ChemDiv-F953-0965 MCULE-2743964341 MolPort-010-836-333 PubChem-53081262 ZINC000096324147


 34 37  0  0  0  0  0  0  0  0999 V2000
   16.4129  -10.1863   12.2127 C   0  0  0  0  0  0  0  0  0  0  0  0
   17.5884  -10.6179   12.8980 N   0  0  0  0  0  0  0  0  0  0  0  0
   15.3403   -9.9906   12.8454 O   0  0  0  0  0  0  0  0  0  0  0  0
   18.4057  -10.7925   12.3775 H   0  0  0  0  0  0  0  0  0  0  0  0
   17.1104   -9.4043    8.8742 C   0  0  0  0  0  0  0  0  0  0  0  0
   15.8888   -9.9457    8.7074 N   0  0  0  0  0  0  0  0  0  0  0  0
   15.4739  -10.3042    9.9127 N   0  0  0  0  0  0  0  0  0  0  0  0
   16.4602   -9.9674   10.7657 C   0  0  0  0  0  0  0  0  0  0  0  0
   17.4682   -9.4147   10.1356 O   0  0  0  0  0  0  0  0  0  0  0  0
   17.9281   -8.8720    7.7782 C   0  0  0  0  0  0  0  0  0  0  0  0
   17.6998   -9.1395    6.5038 O   0  0  0  0  0  0  0  0  0  0  0  0
   18.6080   -8.5088    5.7976 C   0  0  0  0  0  0  0  0  0  0  0  0
   19.4571   -7.8080    6.6151 C   0  0  0  0  0  0  0  0  0  0  0  0
   20.5125   -7.0502    6.1116 C   0  0  0  0  0  0  0  0  0  0  0  0
   20.6842   -7.0253    4.7154 C   0  0  0  0  0  0  0  0  0  0  0  0
   19.8101   -7.7471    3.8724 C   0  0  0  0  0  0  0  0  0  0  0  0
   18.7533   -8.5030    4.4125 C   0  0  0  0  0  0  0  0  0  0  0  0
   21.7935   -6.2337    4.1233 C   0  0  0  0  0  0  0  0  0  0  0  0
   19.0326   -8.0310    7.9035 C   0  0  0  0  0  0  0  0  0  0  0  0
   19.6317   -7.4826    9.1540 C   0  0  0  0  0  0  0  0  0  0  0  0
   17.6187  -10.8082   14.3394 C   0  0  0  0  0  0  0  0  0  0  0  0
   18.0687   -9.5281   15.0282 C   0  0  0  0  0  0  0  0  0  0  0  0
   17.0283   -9.0141   15.9692 C   0  0  0  0  0  0  0  0  0  0  0  0
   17.0920   -9.3607   17.3227 C   0  0  0  0  0  0  0  0  0  0  0  0
   16.1368   -8.8707   18.2183 C   0  0  0  0  0  0  0  0  0  0  0  0
   15.1181   -8.0253   17.7652 C   0  0  0  0  0  0  0  0  0  0  0  0
   15.0573   -7.6722   16.4126 C   0  0  0  0  0  0  0  0  0  0  0  0
   16.0121   -8.1618   15.5172 C   0  0  0  0  0  0  0  0  0  0  0  0
   13.9128   -7.4205   18.8867 S   0  0  0  0  0  0  0  0  0  0  0  0
   14.5742   -7.3687   20.4821 N   0  0  0  0  0  0  0  0  0  0  0  0
   13.5016   -6.0314   18.4873 O   0  0  0  0  0  0  0  0  0  0  0  0
   12.7127   -8.3240   18.8708 O   0  0  0  0  0  0  0  0  0  0  0  0
   15.3890   -6.7552   20.4926 H   0  0  0  0  0  0  0  0  0  0  0  0
   14.8523   -8.3082   20.7656 H   0  0  0  0  0  0  0  0  0  0  0  0
  5  6  2  0  0  0
  6  7  1  0  0  0
  7  8  2  0  0  0
  8  1  1  0  0  0
  1  2  1  0  0  0
  2 21  1  0  0  0
 21 22  1  0  0  0
 22 23  1  0  0  0
 23 24  2  0  0  0
 24 25  1  0  0  0
 25 26  2  0  0  0
 26 27  1  0  0  0
 27 28  2  0  0  0
 26 29  1  0  0  0
 29 30  1  0  0  0
 29 31  2  0  0  0
 29 32  2  0  0  0
  1  3  2  0  0  0
  8  9  1  0  0  0
  5 10  1  0  0  0
 10 11  1  0  0  0
 11 12  1  0  0  0
 12 13  2  0  0  0
 13 14  1  0  0  0
 14 15  2  0  0  0
 15 16  1  0  0  0
 16 17  2  0  0  0
 15 18  1  0  0  0
 13 19  1  0  0  0
 19 20  1  0  0  0
  9  5  1  0  0  0
 19 10  2  0  0  0
 28 23  1  0  0  0
 17 12  1  0  0  0
  2  4  1  0  0  0
 30 33  1  0  0  0
 30 34  1  0  0  0
M  END
>  <minimizedAffinity>
-8.54705

>  <minimizedRMSD>
2.64288

$$$$
ChemDiv-G357-1519 MCULE-9801134906 MolPort-007-847-560 PubChem-46343410 ZINC000021632551 ZINC21632551


 31 34  0  0  0  0  0  0  0  0999 V2000
   16.2171   -8.6867   16.8354 C   0  0  0  0  0  0  0  0  0  0  0  0
   16.8656   -9.9246   16.7833 C   0  0  0  0  0  0  0  0  0  0  0  0
   17.2989  -10.4460   15.5609 C   0  0  0  0  0  0  0  0  0  0  0  0
   17.0886   -9.7326   14.3729 C   0  0  0  0  0  0  0  0  0  0  0  0
   16.4418   -8.4914   14.4243 C   0  0  0  0  0  0  0  0  0  0  0  0
   16.0084   -7.9718   15.6470 C   0  0  0  0  0  0  0  0  0  0  0  0
   14.5281   -7.5456   18.3988 C   0  0  0  0  0  0  0  0  0  0  0  0
   13.7046   -7.3156   17.4735 O   0  0  0  0  0  0  0  0  0  0  0  0
   15.7767   -8.1938   18.1076 N   0  0  0  0  0  0  0  0  0  0  0  0
   16.3967   -8.3122   18.8631 H   0  0  0  0  0  0  0  0  0  0  0  0
   12.4915   -5.3922   19.1084 C   0  0  0  0  0  0  0  0  0  0  0  0
   13.2935   -6.1231   20.1304 C   0  0  0  0  0  0  0  0  0  0  0  0
   14.2313   -7.1333   19.7944 C   0  0  0  0  0  0  0  0  0  0  0  0
   14.9183   -7.7824   20.8330 C   0  0  0  0  0  0  0  0  0  0  0  0
   14.6939   -7.4445   22.1685 C   0  0  0  0  0  0  0  0  0  0  0  0
   13.7733   -6.4483   22.4882 C   0  0  0  0  0  0  0  0  0  0  0  0
   13.0761   -5.7922   21.4724 C   0  0  0  0  0  0  0  0  0  0  0  0
   17.5348  -10.2790   13.0819 C   0  0  0  0  0  0  0  0  0  0  0  0
   18.0188  -11.4437   13.0222 O   0  0  0  0  0  0  0  0  0  0  0  0
   17.4246   -9.5030   11.9255 O   0  0  0  0  0  0  0  0  0  0  0  0
   18.5464   -8.8466   11.3527 C   0  0  0  0  0  0  0  0  0  0  0  0
   18.4173   -8.8398    9.8711 C   0  0  0  0  0  0  0  0  0  0  0  0
   17.4087   -9.5955    9.2532 C   0  0  0  0  0  0  0  0  0  0  0  0
   17.2961   -9.5550    7.8589 C   0  0  0  0  0  0  0  0  0  0  0  0
   16.4016  -10.2267    7.2779 O   0  0  0  0  0  0  0  0  0  0  0  0
   18.1640   -8.7822    7.1505 N   0  0  0  0  0  0  0  0  0  0  0  0
   18.1953   -8.6369    5.7980 C   0  0  0  0  0  0  0  0  0  0  0  0
   19.2043   -7.7841    5.3360 C   0  0  0  0  0  0  0  0  0  0  0  0
   20.0602   -7.2141    6.6846 S   0  0  0  0  0  0  0  0  0  0  0  0
   19.1206   -8.0656    7.7726 C   0  0  0  0  0  0  0  0  0  0  0  0
   19.2614   -8.0775    9.1208 N   0  0  0  0  0  0  0  0  0  0  0  0
 11 12  1  0  0  0
 12 13  2  0  0  0
 13 14  1  0  0  0
 13  7  1  0  0  0
 14 15  2  0  0  0
 15 16  1  0  0  0
 16 17  2  0  0  0
 17 12  1  0  0  0
  7  8  2  0  0  0
  7  9  1  0  0  0
  9  1  1  0  0  0
  1  2  2  0  0  0
  2  3  1  0  0  0
  3  4  2  0  0  0
  4  5  1  0  0  0
  4 18  1  0  0  0
  5  6  2  0  0  0
  6  1  1  0  0  0
 18 19  2  0  0  0
 18 20  1  0  0  0
 20 21  1  0  0  0
 21 22  1  0  0  0
 22 23  2  0  0  0
 23 24  1  0  0  0
 24 25  2  0  0  0
 24 26  1  0  0  0
 26 27  1  0  0  0
 27 28  2  0  0  0
 28 29  1  0  0  0
 29 30  1  0  0  0
 30 31  2  0  0  0
 30 26  1  0  0  0
 31 22  1  0  0  0
  9 10  1  0  0  0
M  END
>  <minimizedAffinity>
-8.53351

>  <minimizedRMSD>
1.16320

$$$$
ChemDiv-G357-0034 CHEMBL2354714 MCULE-2340538978 MolPort-007-847-018 PubChem-16027370 ZINC000008606004


 34 37  0  0  0  0  0  0  0  0999 V2000
   17.1131   -9.7388   14.2889 C   0  0  0  0  0  0  0  0  0  0  0  0
   17.3624  -10.5188   15.4267 C   0  0  0  0  0  0  0  0  0  0  0  0
   16.9695  -10.0694   16.6907 C   0  0  0  0  0  0  0  0  0  0  0  0
   16.3231   -8.8377   16.8348 C   0  0  0  0  0  0  0  0  0  0  0  0
   16.0748   -8.0564   15.6965 C   0  0  0  0  0  0  0  0  0  0  0  0
   16.4672   -8.5042   14.4323 C   0  0  0  0  0  0  0  0  0  0  0  0
   15.9378   -8.4101   18.1482 N   0  0  0  0  0  0  0  0  0  0  0  0
   14.7732   -7.6495   18.4945 C   0  0  0  0  0  0  0  0  0  0  0  0
   13.9279   -7.3133   17.6235 O   0  0  0  0  0  0  0  0  0  0  0  0
   16.5347   -8.6651   18.8884 H   0  0  0  0  0  0  0  0  0  0  0  0
   14.5374   -7.2861   19.9163 C   0  0  0  0  0  0  0  0  0  0  0  0
   13.9519   -5.9936   19.9864 O   0  0  0  0  0  0  0  0  0  0  0  0
   12.9611   -5.6248   20.9063 C   0  0  0  0  0  0  0  0  0  0  0  0
   11.7347   -5.1810   20.3974 C   0  0  0  0  0  0  0  0  0  0  0  0
   10.7023   -4.7971   21.2563 C   0  0  0  0  0  0  0  0  0  0  0  0
   10.8871   -4.8541   22.6384 C   0  0  0  0  0  0  0  0  0  0  0  0
   12.1048   -5.2942   23.1613 C   0  0  0  0  0  0  0  0  0  0  0  0
   13.1433   -5.6799   22.3075 C   0  0  0  0  0  0  0  0  0  0  0  0
   14.3085   -6.0990   22.8590 F   0  0  0  0  0  0  0  0  0  0  0  0
   17.5243  -10.2058   12.9553 C   0  0  0  0  0  0  0  0  0  0  0  0
   17.9988  -11.3664   12.8101 O   0  0  0  0  0  0  0  0  0  0  0  0
   17.3865   -9.3594   11.8531 O   0  0  0  0  0  0  0  0  0  0  0  0
   18.4990   -8.6972   11.2700 C   0  0  0  0  0  0  0  0  0  0  0  0
   18.1825   -8.8300    7.0674 N   0  0  0  0  0  0  0  0  0  0  0  0
   18.2023   -8.7635    5.7382 N   0  0  0  0  0  0  0  0  0  0  0  0
   19.1836   -7.9463    5.2860 C   0  0  0  0  0  0  0  0  0  0  0  0
   20.0817   -7.2615    6.5521 S   0  0  0  0  0  0  0  0  0  0  0  0
   19.1302   -8.0803    7.6686 C   0  0  0  0  0  0  0  0  0  0  0  0
   19.2507   -8.0313    9.0176 N   0  0  0  0  0  0  0  0  0  0  0  0
   18.3966   -8.7624    9.7885 C   0  0  0  0  0  0  0  0  0  0  0  0
   17.3936   -9.5438    9.1910 C   0  0  0  0  0  0  0  0  0  0  0  0
   17.3025   -9.5680    7.7947 C   0  0  0  0  0  0  0  0  0  0  0  0
   16.4166  -10.2614    7.2283 O   0  0  0  0  0  0  0  0  0  0  0  0
   19.4338   -7.6908    3.8433 C   0  0  0  0  0  0  0  0  0  0  0  0
 24 25  1  0  0  0
 25 26  2  0  0  0
 26 27  1  0  0  0
 27 28  1  0  0  0
 28 29  2  0  0  0
 29 30  1  0  0  0
 30 23  1  0  0  0
 23 22  1  0  0  0
 22 20  1  0  0  0
 20 21  2  0  0  0
 20  1  1  0  0  0
  1  2  2  0  0  0
  2  3  1  0  0  0
  3  4  2  0  0  0
  4  5  1  0  0  0
  5  6  2  0  0  0
  4  7  1  0  0  0
  7  8  1  0  0  0
  8 11  1  0  0  0
 11 12  1  0  0  0
 12 13  1  0  0  0
 13 14  2  0  0  0
 14 15  1  0  0  0
 15 16  2  0  0  0
 16 17  1  0  0  0
 17 18  2  0  0  0
 18 19  1  0  0  0
  8  9  2  0  0  0
 30 31  2  0  0  0
 31 32  1  0  0  0
 32 33  2  0  0  0
 26 34  1  0  0  0
 28 24  1  0  0  0
  6  1  1  0  0  0
 18 13  1  0  0  0
 32 24  1  0  0  0
  7 10  1  0  0  0
M  END
>  <minimizedAffinity>
-8.53156

>  <minimizedRMSD>
1.54736

$$$$
ChemDiv-G795-0363 MCULE-1733649429 MolPort-010-745-018 PubChem-53030368 ZINC000035447630


 28 30  0  0  0  0  0  0  0  0999 V2000
   17.3698   -9.9961   13.8245 C   0  0  0  0  0  0  0  0  0  0  0  0
   18.0313  -11.1025   14.4020 C   0  0  0  0  0  0  0  0  0  0  0  0
   18.9072  -12.0071   13.6042 C   0  0  0  0  0  0  0  0  0  0  0  0
   17.9307  -11.3285   15.7778 C   0  0  0  0  0  0  0  0  0  0  0  0
   17.1904  -10.4620   16.5845 C   0  0  0  0  0  0  0  0  0  0  0  0
   16.5530   -9.3472   16.0267 C   0  0  0  0  0  0  0  0  0  0  0  0
   16.6558   -9.1191   14.6479 C   0  0  0  0  0  0  0  0  0  0  0  0
   16.3886   -9.8914   11.4819 C   0  0  0  0  0  0  0  0  0  0  0  0
   15.2150  -10.1065   11.8901 O   0  0  0  0  0  0  0  0  0  0  0  0
   17.4493   -9.6980   12.4248 N   0  0  0  0  0  0  0  0  0  0  0  0
   18.2980   -9.3323   12.0855 H   0  0  0  0  0  0  0  0  0  0  0  0
   16.6419   -9.7980   10.0305 C   0  0  0  0  0  0  0  0  0  0  0  0
   17.6673   -9.0165    9.4349 C   0  0  0  0  0  0  0  0  0  0  0  0
   18.6091   -8.2066   10.0798 C   0  0  0  0  0  0  0  0  0  0  0  0
   19.5534   -7.5112    9.3046 C   0  0  0  0  0  0  0  0  0  0  0  0
   19.5521   -7.6274    7.9009 C   0  0  0  0  0  0  0  0  0  0  0  0
   18.6076   -8.4397    7.2551 C   0  0  0  0  0  0  0  0  0  0  0  0
   17.6884   -9.1131    8.0528 C   0  0  0  0  0  0  0  0  0  0  0  0
   16.4600  -10.1450    7.6289 S   0  0  0  0  0  0  0  0  0  0  0  0
   15.8717  -10.4980    9.1485 N   0  0  0  0  0  0  0  0  0  0  0  0
   15.7848   -8.4238   16.8798 C   0  0  0  0  0  0  0  0  0  0  0  0
   15.8002   -8.5817   18.3024 N   0  0  0  0  0  0  0  0  0  0  0  0
   15.1115   -7.4938   16.3563 O   0  0  0  0  0  0  0  0  0  0  0  0
   16.3132   -9.3283   18.6881 H   0  0  0  0  0  0  0  0  0  0  0  0
   15.0893   -7.6849   19.2037 C   0  0  0  0  0  0  0  0  0  0  0  0
   16.0727   -6.8524   20.0109 C   0  0  0  0  0  0  0  0  0  0  0  0
   15.8103   -6.9952   21.3739 O   0  0  0  0  0  0  0  0  0  0  0  0
   16.9400   -6.4714   22.0036 C   0  0  0  0  0  0  0  0  0  0  0  0
 12 13  1  0  0  0
 13 14  2  0  0  0
 14 15  1  0  0  0
 15 16  2  0  0  0
 16 17  1  0  0  0
 17 18  2  0  0  0
 18 19  1  0  0  0
 19 20  1  0  0  0
 12  8  1  0  0  0
  8  9  2  0  0  0
  8 10  1  0  0  0
 10  1  1  0  0  0
  1  2  2  0  0  0
  2  3  1  0  0  0
  2  4  1  0  0  0
  4  5  2  0  0  0
  5  6  1  0  0  0
  6  7  2  0  0  0
  6 21  1  0  0  0
 21 22  1  0  0  0
 22 25  1  0  0  0
 25 26  1  0  0  0
 26 27  1  0  0  0
 27 28  1  0  0  0
 21 23  2  0  0  0
 20 12  2  0  0  0
  7  1  1  0  0  0
 18 13  1  0  0  0
 10 11  1  0  0  0
 22 24  1  0  0  0
M  END
>  <minimizedAffinity>
-8.53068

>  <minimizedRMSD>
0.98750

$$$$
ChemDiv-C679-4569 MCULE-4713058898 MolPort-007-655-933 PubChem-46258386 ZINC000013368211


 33 36  0  0  0  0  0  0  0  0999 V2000
   17.4065   -9.7660   14.9357 C   0  0  0  0  0  0  0  0  0  0  0  0
   18.7819   -9.4976   15.0182 C   0  0  0  0  0  0  0  0  0  0  0  0
   19.3087   -8.8691   16.1491 C   0  0  0  0  0  0  0  0  0  0  0  0
   18.4658   -8.5056   17.2026 C   0  0  0  0  0  0  0  0  0  0  0  0
   17.0934   -8.7669   17.1341 C   0  0  0  0  0  0  0  0  0  0  0  0
   16.5710   -9.3986   15.9951 C   0  0  0  0  0  0  0  0  0  0  0  0
   16.2618   -8.3784   18.2359 N   0  0  0  0  0  0  0  0  0  0  0  0
   15.0005   -7.6956   18.1649 C   0  0  0  0  0  0  0  0  0  0  0  0
   14.5081   -7.3706   17.0502 O   0  0  0  0  0  0  0  0  0  0  0  0
   16.5904   -8.6037   19.1362 H   0  0  0  0  0  0  0  0  0  0  0  0
   14.2751   -7.3718   19.4060 C   0  0  0  0  0  0  0  0  0  0  0  0
   13.0001   -6.7885   19.3528 C   0  0  0  0  0  0  0  0  0  0  0  0
   12.3131   -6.4818   20.5311 C   0  0  0  0  0  0  0  0  0  0  0  0
   12.8957   -6.7560   21.7712 C   0  0  0  0  0  0  0  0  0  0  0  0
   14.1652   -7.3367   21.8331 C   0  0  0  0  0  0  0  0  0  0  0  0
   14.8956   -7.6804   23.3859 Cl  0  0  0  0  0  0  0  0  0  0  0  0
   14.8522   -7.6434   20.6551 C   0  0  0  0  0  0  0  0  0  0  0  0
   16.8472  -10.3929   13.8195 O   0  0  0  0  0  0  0  0  0  0  0  0
   17.6273  -11.1018   12.8657 C   0  0  0  0  0  0  0  0  0  0  0  0
   17.4134   -9.0893    9.1668 N   0  0  0  0  0  0  0  0  0  0  0  0
   17.4884   -8.3895    8.0374 N   0  0  0  0  0  0  0  0  0  0  0  0
   18.6737   -7.7438    7.9174 C   0  0  0  0  0  0  0  0  0  0  0  0
   19.6864   -8.0136    9.2529 S   0  0  0  0  0  0  0  0  0  0  0  0
   18.5144   -8.9999    9.9422 C   0  0  0  0  0  0  0  0  0  0  0  0
   18.6033   -9.6447   11.1311 N   0  0  0  0  0  0  0  0  0  0  0  0
   17.5568  -10.4104   11.5515 C   0  0  0  0  0  0  0  0  0  0  0  0
   16.3945  -10.5149   10.7695 C   0  0  0  0  0  0  0  0  0  0  0  0
   16.3416   -9.8324    9.5492 C   0  0  0  0  0  0  0  0  0  0  0  0
   15.3147   -9.9079    8.8235 O   0  0  0  0  0  0  0  0  0  0  0  0
   19.0081   -6.8525    6.7703 C   0  0  0  0  0  0  0  0  0  0  0  0
   19.8856   -7.5762    5.7619 C   0  0  0  0  0  0  0  0  0  0  0  0
   19.0156   -8.4330    4.8671 C   0  0  0  0  0  0  0  0  0  0  0  0
   20.6429   -6.5765    4.9079 C   0  0  0  0  0  0  0  0  0  0  0  0
 20 21  1  0  0  0
 21 22  2  0  0  0
 22 23  1  0  0  0
 23 24  1  0  0  0
 24 25  2  0  0  0
 25 26  1  0  0  0
 26 19  1  0  0  0
 19 18  1  0  0  0
 18  1  1  0  0  0
  1  2  2  0  0  0
  2  3  1  0  0  0
  3  4  2  0  0  0
  4  5  1  0  0  0
  5  6  2  0  0  0
  5  7  1  0  0  0
  7  8  1  0  0  0
  8  9  2  0  0  0
  8 11  1  0  0  0
 11 12  2  0  0  0
 12 13  1  0  0  0
 13 14  2  0  0  0
 14 15  1  0  0  0
 15 16  1  0  0  0
 15 17  2  0  0  0
 26 27  2  0  0  0
 27 28  1  0  0  0
 28 29  2  0  0  0
 22 30  1  0  0  0
 30 31  1  0  0  0
 31 32  1  0  0  0
 31 33  1  0  0  0
 24 20  1  0  0  0
  6  1  1  0  0  0
 17 11  1  0  0  0
 28 20  1  0  0  0
  7 10  1  0  0  0
M  END
>  <minimizedAffinity>
-8.52844

>  <minimizedRMSD>
1.84518

$$$$
ChemDiv-F172-0369 MCULE-3203060466 MolPort-010-736-239 PubChem-50764226 ZINC000035378623 ZINC35378623


 34 37  0  0  0  0  0  0  0  0999 V2000
   16.9453   -9.4832   16.7352 C   0  0  0  0  0  0  0  0  0  0  0  0
   17.3626  -10.7293   17.2036 C   0  0  0  0  0  0  0  0  0  0  0  0
   17.8025  -11.7062   16.3105 C   0  0  0  0  0  0  0  0  0  0  0  0
   17.8290  -11.4556   14.9350 C   0  0  0  0  0  0  0  0  0  0  0  0
   18.3369  -12.5483   14.0583 C   0  0  0  0  0  0  0  0  0  0  0  0
   17.4040  -10.1931   14.4437 C   0  0  0  0  0  0  0  0  0  0  0  0
   16.9705   -9.2262   15.3582 C   0  0  0  0  0  0  0  0  0  0  0  0
   15.1488   -8.0418   17.8614 C   0  0  0  0  0  0  0  0  0  0  0  0
   14.2101   -8.4595   17.1330 O   0  0  0  0  0  0  0  0  0  0  0  0
   16.4942   -8.5055   17.6823 N   0  0  0  0  0  0  0  0  0  0  0  0
   17.1787   -8.1119   18.2703 H   0  0  0  0  0  0  0  0  0  0  0  0
   14.8547   -7.0397   18.9210 C   0  0  0  0  0  0  0  0  0  0  0  0
   13.7151   -7.4509   19.6649 O   0  0  0  0  0  0  0  0  0  0  0  0
   11.9918   -5.9737   20.5256 C   0  0  0  0  0  0  0  0  0  0  0  0
   13.1836   -6.6989   20.7189 C   0  0  0  0  0  0  0  0  0  0  0  0
   13.8206   -6.6540   21.9712 C   0  0  0  0  0  0  0  0  0  0  0  0
   13.2763   -5.9033   23.0162 C   0  0  0  0  0  0  0  0  0  0  0  0
   12.0894   -5.1939   22.8214 C   0  0  0  0  0  0  0  0  0  0  0  0
   11.4481   -5.2324   21.5806 C   0  0  0  0  0  0  0  0  0  0  0  0
   11.5584   -4.7559   18.4104 C   0  0  0  0  0  0  0  0  0  0  0  0
   11.2630   -6.0042   19.2209 C   0  0  0  0  0  0  0  0  0  0  0  0
   17.3877   -9.8289   13.0880 O   0  0  0  0  0  0  0  0  0  0  0  0
   18.5056   -9.3594   12.3466 C   0  0  0  0  0  0  0  0  0  0  0  0
   18.1615   -9.3179   10.9010 C   0  0  0  0  0  0  0  0  0  0  0  0
   16.9603   -9.9043   10.4517 C   0  0  0  0  0  0  0  0  0  0  0  0
   16.6448   -9.8238    9.0894 C   0  0  0  0  0  0  0  0  0  0  0  0
   15.5842  -10.3315    8.6401 O   0  0  0  0  0  0  0  0  0  0  0  0
   17.5114   -9.1779    8.2728 N   0  0  0  0  0  0  0  0  0  0  0  0
   17.4201   -8.9706    6.9993 O   0  0  0  0  0  0  0  0  0  0  0  0
   18.4770   -8.2872    6.6060 C   0  0  0  0  0  0  0  0  0  0  0  0
   18.7125   -7.8626    5.2016 C   0  0  0  0  0  0  0  0  0  0  0  0
   19.3313   -8.0178    7.6809 C   0  0  0  0  0  0  0  0  0  0  0  0
   18.6425   -8.6215    8.7155 C   0  0  0  0  0  0  0  0  0  0  0  0
   18.9899   -8.6732   10.0252 N   0  0  0  0  0  0  0  0  0  0  0  0
 20 21  1  0  0  0
 21 14  1  0  0  0
 14 15  2  0  0  0
 15 13  1  0  0  0
 15 16  1  0  0  0
 13 12  1  0  0  0
 12  8  1  0  0  0
  8  9  2  0  0  0
  8 10  1  0  0  0
 10  1  1  0  0  0
  1  2  2  0  0  0
  2  3  1  0  0  0
  3  4  2  0  0  0
  4  5  1  0  0  0
  4  6  1  0  0  0
  6 22  1  0  0  0
  6  7  2  0  0  0
 22 23  1  0  0  0
 23 24  1  0  0  0
 24 25  2  0  0  0
 25 26  1  0  0  0
 26 27  2  0  0  0
 26 28  1  0  0  0
 28 29  1  0  0  0
 29 30  1  0  0  0
 30 31  1  0  0  0
 30 32  2  0  0  0
 32 33  1  0  0  0
 33 34  2  0  0  0
 33 28  1  0  0  0
 34 24  1  0  0  0
  7  1  1  0  0  0
 16 17  2  0  0  0
 17 18  1  0  0  0
 18 19  2  0  0  0
 19 14  1  0  0  0
 10 11  1  0  0  0
M  END
>  <minimizedAffinity>
-8.51160

>  <minimizedRMSD>
1.52267

$$$$
ChemDiv-C679-4388 MCULE-5653483736 MolPort-007-655-866 PubChem-46258350 ZINC000013368101


 32 35  0  0  0  0  0  0  0  0999 V2000
   17.3319   -9.9835   14.3150 C   0  0  0  0  0  0  0  0  0  0  0  0
   18.0525  -11.1699   14.5245 C   0  0  0  0  0  0  0  0  0  0  0  0
   18.1435  -11.7201   15.8052 C   0  0  0  0  0  0  0  0  0  0  0  0
   17.5162  -11.0891   16.8826 C   0  0  0  0  0  0  0  0  0  0  0  0
   16.7952   -9.9063   16.6889 C   0  0  0  0  0  0  0  0  0  0  0  0
   16.7083   -9.3591   15.3997 C   0  0  0  0  0  0  0  0  0  0  0  0
   16.1688   -9.2874   17.8208 N   0  0  0  0  0  0  0  0  0  0  0  0
   15.3598   -8.1001   17.8189 C   0  0  0  0  0  0  0  0  0  0  0  0
   15.1187   -7.4992   16.7374 O   0  0  0  0  0  0  0  0  0  0  0  0
   16.3082   -9.7228   18.6928 H   0  0  0  0  0  0  0  0  0  0  0  0
   14.8129   -7.5903   19.0996 C   0  0  0  0  0  0  0  0  0  0  0  0
   15.7100   -7.2906   20.1373 C   0  0  0  0  0  0  0  0  0  0  0  0
   15.2541   -6.8043   21.3633 C   0  0  0  0  0  0  0  0  0  0  0  0
   13.8894   -6.6093   21.5705 C   0  0  0  0  0  0  0  0  0  0  0  0
   12.9821   -6.9027   20.5522 C   0  0  0  0  0  0  0  0  0  0  0  0
   13.4264   -7.3932   19.3119 C   0  0  0  0  0  0  0  0  0  0  0  0
   12.5064   -7.6831   18.2963 O   0  0  0  0  0  0  0  0  0  0  0  0
   11.5606   -6.7372   17.8153 C   0  0  0  0  0  0  0  0  0  0  0  0
   17.2201   -9.4070   13.0475 O   0  0  0  0  0  0  0  0  0  0  0  0
   16.2709   -9.8460   12.0846 C   0  0  0  0  0  0  0  0  0  0  0  0
   17.7228   -9.0751    8.2020 N   0  0  0  0  0  0  0  0  0  0  0  0
   18.2749   -8.7205    7.0438 N   0  0  0  0  0  0  0  0  0  0  0  0
   19.2707   -7.8168    7.2114 C   0  0  0  0  0  0  0  0  0  0  0  0
   19.4907   -7.4031    8.8434 S   0  0  0  0  0  0  0  0  0  0  0  0
   18.2596   -8.4608    9.2775 C   0  0  0  0  0  0  0  0  0  0  0  0
   17.8105   -8.7013   10.5336 N   0  0  0  0  0  0  0  0  0  0  0  0
   16.7961   -9.5935   10.7170 C   0  0  0  0  0  0  0  0  0  0  0  0
   16.2118  -10.2405    9.6155 C   0  0  0  0  0  0  0  0  0  0  0  0
   16.7027   -9.9634    8.3349 C   0  0  0  0  0  0  0  0  0  0  0  0
   16.2007  -10.5274    7.3268 O   0  0  0  0  0  0  0  0  0  0  0  0
   20.0287   -7.2173    6.0803 C   0  0  0  0  0  0  0  0  0  0  0  0
   19.6974   -7.9468    4.7941 C   0  0  0  0  0  0  0  0  0  0  0  0
 21 22  1  0  0  0
 22 23  2  0  0  0
 23 24  1  0  0  0
 24 25  1  0  0  0
 25 26  2  0  0  0
 26 27  1  0  0  0
 27 20  1  0  0  0
 20 19  1  0  0  0
 19  1  1  0  0  0
  1  2  2  0  0  0
  2  3  1  0  0  0
  3  4  2  0  0  0
  4  5  1  0  0  0
  5  6  2  0  0  0
  5  7  1  0  0  0
  7  8  1  0  0  0
  8  9  2  0  0  0
  8 11  1  0  0  0
 11 12  2  0  0  0
 12 13  1  0  0  0
 13 14  2  0  0  0
 14 15  1  0  0  0
 15 16  2  0  0  0
 16 17  1  0  0  0
 17 18  1  0  0  0
 27 28  2  0  0  0
 28 29  1  0  0  0
 29 30  2  0  0  0
 23 31  1  0  0  0
 31 32  1  0  0  0
 25 21  1  0  0  0
  6  1  1  0  0  0
 16 11  1  0  0  0
 29 21  1  0  0  0
  7 10  1  0  0  0
M  END
>  <minimizedAffinity>
-8.51032

>  <minimizedRMSD>
1.57366

$$$$
ChemDiv-G355-3271 MCULE-6149823346 MolPort-010-743-028 PubChem-50793997 ZINC000035428412 ZINC35428412


 31 34  0  0  0  0  0  0  0  0999 V2000
   17.3425  -10.2684   14.0735 C   0  0  0  0  0  0  0  0  0  0  0  0
   16.5747   -9.6166   15.0455 C   0  0  0  0  0  0  0  0  0  0  0  0
   16.5905  -10.0268   16.3849 C   0  0  0  0  0  0  0  0  0  0  0  0
   17.3891  -11.1085   16.7566 C   0  0  0  0  0  0  0  0  0  0  0  0
   18.1625  -11.7732   15.8046 C   0  0  0  0  0  0  0  0  0  0  0  0
   18.1507  -11.3682   14.4664 C   0  0  0  0  0  0  0  0  0  0  0  0
   19.0074  -12.1377   13.5209 C   0  0  0  0  0  0  0  0  0  0  0  0
   15.8091   -9.3683   17.3911 N   0  0  0  0  0  0  0  0  0  0  0  0
   15.2160   -8.0634   17.3083 C   0  0  0  0  0  0  0  0  0  0  0  0
   15.3584   -7.3668   16.2663 O   0  0  0  0  0  0  0  0  0  0  0  0
   15.6637   -9.8645   18.2289 H   0  0  0  0  0  0  0  0  0  0  0  0
   14.4319   -7.5212   18.4426 C   0  0  0  0  0  0  0  0  0  0  0  0
   15.0217   -7.2045   19.6866 C   0  0  0  0  0  0  0  0  0  0  0  0
   16.3475   -7.3820   19.9094 F   0  0  0  0  0  0  0  0  0  0  0  0
   14.2364   -6.6950   20.7257 C   0  0  0  0  0  0  0  0  0  0  0  0
   12.8669   -6.4950   20.5436 C   0  0  0  0  0  0  0  0  0  0  0  0
   12.2748   -6.8045   19.3189 C   0  0  0  0  0  0  0  0  0  0  0  0
   13.0527   -7.3139   18.2768 C   0  0  0  0  0  0  0  0  0  0  0  0
   17.2497   -9.7726   12.7630 O   0  0  0  0  0  0  0  0  0  0  0  0
   18.2165   -8.9547   12.1196 C   0  0  0  0  0  0  0  0  0  0  0  0
   19.0672   -7.8695    4.9473 C   0  0  0  0  0  0  0  0  0  0  0  0
   18.7270   -8.2405    6.3458 C   0  0  0  0  0  0  0  0  0  0  0  0
   19.3664   -7.7441    7.4869 C   0  0  0  0  0  0  0  0  0  0  0  0
   18.6704   -8.4042    8.4815 C   0  0  0  0  0  0  0  0  0  0  0  0
   18.8521   -8.3139    9.8218 N   0  0  0  0  0  0  0  0  0  0  0  0
   18.0547   -9.0580   10.6455 C   0  0  0  0  0  0  0  0  0  0  0  0
   17.0516   -9.8919   10.1100 C   0  0  0  0  0  0  0  0  0  0  0  0
   16.9022   -9.9508    8.7190 C   0  0  0  0  0  0  0  0  0  0  0  0
   16.0236  -10.6828    8.1927 O   0  0  0  0  0  0  0  0  0  0  0  0
   17.7297   -9.1955    7.9582 N   0  0  0  0  0  0  0  0  0  0  0  0
   17.7716   -9.0898    6.6695 O   0  0  0  0  0  0  0  0  0  0  0  0
 21 22  1  0  0  0
 22 23  2  0  0  0
 23 24  1  0  0  0
 24 25  2  0  0  0
 25 26  1  0  0  0
 26 20  1  0  0  0
 26 27  2  0  0  0
 20 19  1  0  0  0
 19  1  1  0  0  0
  1  2  2  0  0  0
  2  3  1  0  0  0
  3  8  1  0  0  0
  3  4  2  0  0  0
  8  9  1  0  0  0
  9 10  2  0  0  0
  9 12  1  0  0  0
 12 13  2  0  0  0
 13 14  1  0  0  0
 13 15  1  0  0  0
 15 16  2  0  0  0
 16 17  1  0  0  0
 17 18  2  0  0  0
 18 12  1  0  0  0
  4  5  1  0  0  0
  5  6  2  0  0  0
  6  7  1  0  0  0
  6  1  1  0  0  0
 27 28  1  0  0  0
 28 29  2  0  0  0
 28 30  1  0  0  0
 30 31  1  0  0  0
 30 24  1  0  0  0
 31 22  1  0  0  0
  8 11  1  0  0  0
M  END
>  <minimizedAffinity>
-8.50880

>  <minimizedRMSD>
1.17877

$$$$
ChemDiv-G756-1013 MCULE-7618659383 MolPort-010-744-704 PubChem-50802598 ZINC000033268625 ZINC33268625


 32 35  0  0  0  0  0  0  0  0999 V2000
   16.6061   -9.4518   17.1271 C   0  0  0  0  0  0  0  0  0  0  0  0
   16.6489   -9.1163   15.7655 C   0  0  0  0  0  0  0  0  0  0  0  0
   17.3837   -9.8901   14.8618 C   0  0  0  0  0  0  0  0  0  0  0  0
   18.0826  -11.0146   15.3274 C   0  0  0  0  0  0  0  0  0  0  0  0
   18.0395  -11.3577   16.6806 C   0  0  0  0  0  0  0  0  0  0  0  0
   17.3011  -10.5791   17.5758 C   0  0  0  0  0  0  0  0  0  0  0  0
   14.8061   -7.7452   17.7836 C   0  0  0  0  0  0  0  0  0  0  0  0
   14.5434   -7.4440   16.5869 O   0  0  0  0  0  0  0  0  0  0  0  0
   15.8540   -8.6821   18.0749 N   0  0  0  0  0  0  0  0  0  0  0  0
   16.0799   -8.8095   19.0246 H   0  0  0  0  0  0  0  0  0  0  0  0
   14.6041   -6.8390   20.1548 C   0  0  0  0  0  0  0  0  0  0  0  0
   14.0448   -7.0952   18.8786 C   0  0  0  0  0  0  0  0  0  0  0  0
   12.7112   -6.7279   18.6344 C   0  0  0  0  0  0  0  0  0  0  0  0
   11.9418   -6.1136   19.6231 C   0  0  0  0  0  0  0  0  0  0  0  0
   12.4951   -5.8577   20.8763 C   0  0  0  0  0  0  0  0  0  0  0  0
   13.8163   -6.2183   21.1401 C   0  0  0  0  0  0  0  0  0  0  0  0
   16.6671   -6.6550   21.5176 C   0  0  0  0  0  0  0  0  0  0  0  0
   15.9248   -7.2073   20.4390 O   0  0  0  0  0  0  0  0  0  0  0  0
   17.4004   -9.5217   13.5145 O   0  0  0  0  0  0  0  0  0  0  0  0
   18.4473   -9.8947   12.6284 C   0  0  0  0  0  0  0  0  0  0  0  0
   18.0347   -9.6217   11.2263 C   0  0  0  0  0  0  0  0  0  0  0  0
   16.7794  -10.0248   10.7811 C   0  0  0  0  0  0  0  0  0  0  0  0
   16.4106   -9.7450    9.4665 C   0  0  0  0  0  0  0  0  0  0  0  0
   15.2735  -10.1112    9.0608 O   0  0  0  0  0  0  0  0  0  0  0  0
   17.2748   -9.0824    8.6364 N   0  0  0  0  0  0  0  0  0  0  0  0
   16.9118   -8.8080    7.3476 C   0  0  0  0  0  0  0  0  0  0  0  0
   17.7800   -8.1311    6.4895 C   0  0  0  0  0  0  0  0  0  0  0  0
   19.0308   -7.7346    6.9575 C   0  0  0  0  0  0  0  0  0  0  0  0
   19.9683   -7.0145    6.0574 C   0  0  0  0  0  0  0  0  0  0  0  0
   19.4015   -8.0158    8.2707 C   0  0  0  0  0  0  0  0  0  0  0  0
   18.5103   -8.6935    9.1055 C   0  0  0  0  0  0  0  0  0  0  0  0
   18.8730   -8.9652   10.3855 N   0  0  0  0  0  0  0  0  0  0  0  0
 17 18  1  0  0  0
 18 11  1  0  0  0
 11 12  2  0  0  0
 12 13  1  0  0  0
 12  7  1  0  0  0
 13 14  2  0  0  0
 14 15  1  0  0  0
 15 16  2  0  0  0
 16 11  1  0  0  0
  7  8  2  0  0  0
  7  9  1  0  0  0
  9  1  1  0  0  0
  1  2  2  0  0  0
  2  3  1  0  0  0
  3 19  1  0  0  0
  3  4  2  0  0  0
 19 20  1  0  0  0
 20 21  1  0  0  0
 21 22  2  0  0  0
 22 23  1  0  0  0
 23 24  2  0  0  0
 23 25  1  0  0  0
 25 26  1  0  0  0
 26 27  2  0  0  0
 27 28  1  0  0  0
 28 29  1  0  0  0
 28 30  2  0  0  0
 30 31  1  0  0  0
 31 32  2  0  0  0
 31 25  1  0  0  0
 32 21  1  0  0  0
  4  5  1  0  0  0
  5  6  2  0  0  0
  6  1  1  0  0  0
  9 10  1  0  0  0
M  END
>  <minimizedAffinity>
-8.50495

>  <minimizedRMSD>
1.38348

$$$$
ChemDiv-D439-2898 MCULE-1214593642 MolPort-010-713-987 PubChem-50748717 ZINC000021796885 ZINC21796885


 34 37  0  0  0  0  0  0  0  0999 V2000
   16.6702   -9.7399   14.1596 C   0  0  0  0  0  0  0  0  0  0  0  0
   17.6128  -10.7717   14.2900 C   0  0  0  0  0  0  0  0  0  0  0  0
   18.1004  -11.1234   15.5512 C   0  0  0  0  0  0  0  0  0  0  0  0
   17.6497  -10.4470   16.6882 C   0  0  0  0  0  0  0  0  0  0  0  0
   16.7128   -9.4156   16.5729 C   0  0  0  0  0  0  0  0  0  0  0  0
   16.2259   -9.0682   15.3033 C   0  0  0  0  0  0  0  0  0  0  0  0
   16.2735   -8.7493   17.7633 N   0  0  0  0  0  0  0  0  0  0  0  0
   15.1463   -7.8700   17.8922 C   0  0  0  0  0  0  0  0  0  0  0  0
   14.4257   -7.5869   16.8983 O   0  0  0  0  0  0  0  0  0  0  0  0
   16.8006   -8.9117   18.5788 H   0  0  0  0  0  0  0  0  0  0  0  0
   14.7782   -7.3141   19.2296 C   0  0  0  0  0  0  0  0  0  0  0  0
   15.9357   -7.0472   20.0160 O   0  0  0  0  0  0  0  0  0  0  0  0
   15.9525   -7.0027   21.4184 C   0  0  0  0  0  0  0  0  0  0  0  0
   14.8881   -7.4730   22.2224 C   0  0  0  0  0  0  0  0  0  0  0  0
   13.7588   -7.9906   21.6785 F   0  0  0  0  0  0  0  0  0  0  0  0
   14.9809   -7.4005   23.6156 C   0  0  0  0  0  0  0  0  0  0  0  0
   16.1179   -6.8602   24.2201 C   0  0  0  0  0  0  0  0  0  0  0  0
   17.1679   -6.3875   23.4315 C   0  0  0  0  0  0  0  0  0  0  0  0
   17.0831   -6.4591   22.0388 C   0  0  0  0  0  0  0  0  0  0  0  0
   16.1610   -9.3649   12.9134 O   0  0  0  0  0  0  0  0  0  0  0  0
   16.0674  -10.2671   11.8191 C   0  0  0  0  0  0  0  0  0  0  0  0
   18.9473   -8.0373    7.7085 N   0  0  0  0  0  0  0  0  0  0  0  0
   19.9848   -7.5980    8.4642 C   0  0  0  0  0  0  0  0  0  0  0  0
   19.8091   -7.9125    9.7767 N   0  0  0  0  0  0  0  0  0  0  0  0
   18.6252   -8.5553    9.7554 C   0  0  0  0  0  0  0  0  0  0  0  0
   17.9907   -9.0788   10.8320 N   0  0  0  0  0  0  0  0  0  0  0  0
   16.7919   -9.7077   10.6483 C   0  0  0  0  0  0  0  0  0  0  0  0
   16.2193   -9.7964    9.3623 C   0  0  0  0  0  0  0  0  0  0  0  0
   16.9113   -9.2406    8.2791 C   0  0  0  0  0  0  0  0  0  0  0  0
   16.4356   -9.3050    7.1145 O   0  0  0  0  0  0  0  0  0  0  0  0
   18.1035   -8.6353    8.5295 N   0  0  0  0  0  0  0  0  0  0  0  0
   19.6895   -6.7867    5.7397 C   0  0  0  0  0  0  0  0  0  0  0  0
   18.7801   -7.8804    6.2654 C   0  0  0  0  0  0  0  0  0  0  0  0
   19.0714   -9.1850    5.5499 C   0  0  0  0  0  0  0  0  0  0  0  0
 32 33  1  0  0  0
 33 34  1  0  0  0
 33 22  1  0  0  0
 22 23  1  0  0  0
 23 24  2  0  0  0
 24 25  1  0  0  0
 25 26  2  0  0  0
 26 27  1  0  0  0
 27 21  1  0  0  0
 27 28  2  0  0  0
 21 20  1  0  0  0
 20  1  1  0  0  0
  1  2  2  0  0  0
  2  3  1  0  0  0
  3  4  2  0  0  0
  4  5  1  0  0  0
  5  7  1  0  0  0
  5  6  2  0  0  0
  7  8  1  0  0  0
  8  9  2  0  0  0
  8 11  1  0  0  0
 11 12  1  0  0  0
 12 13  1  0  0  0
 13 14  2  0  0  0
 14 15  1  0  0  0
 14 16  1  0  0  0
 16 17  2  0  0  0
 17 18  1  0  0  0
 18 19  2  0  0  0
 19 13  1  0  0  0
  6  1  1  0  0  0
 28 29  1  0  0  0
 29 30  2  0  0  0
 29 31  1  0  0  0
 31 22  1  0  0  0
 31 25  1  0  0  0
  7 10  1  0  0  0
M  END
>  <minimizedAffinity>
-8.50027

>  <minimizedRMSD>
1.94283

$$$$
ChemDiv-C679-4016 MCULE-8419876338 MolPort-007-655-746 PubChem-46258304 ZINC000013367842


 30 33  0  0  0  0  0  0  0  0999 V2000
   17.3130  -10.7072   14.3232 C   0  0  0  0  0  0  0  0  0  0  0  0
   18.2504  -11.6645   14.7419 C   0  0  0  0  0  0  0  0  0  0  0  0
   18.4762  -11.8783   16.1038 C   0  0  0  0  0  0  0  0  0  0  0  0
   17.7680  -11.1377   17.0540 C   0  0  0  0  0  0  0  0  0  0  0  0
   16.8303  -10.1814   16.6513 C   0  0  0  0  0  0  0  0  0  0  0  0
   16.6088   -9.9716   15.2815 C   0  0  0  0  0  0  0  0  0  0  0  0
   16.1275   -9.4387   17.6569 N   0  0  0  0  0  0  0  0  0  0  0  0
   15.4478   -8.1847   17.4868 C   0  0  0  0  0  0  0  0  0  0  0  0
   15.4034   -7.6337   16.3537 O   0  0  0  0  0  0  0  0  0  0  0  0
   16.1088   -9.8301   18.5601 H   0  0  0  0  0  0  0  0  0  0  0  0
   14.7972   -7.5448   18.6523 C   0  0  0  0  0  0  0  0  0  0  0  0
   15.4610   -7.5461   19.8892 C   0  0  0  0  0  0  0  0  0  0  0  0
   14.8811   -6.9510   21.0120 C   0  0  0  0  0  0  0  0  0  0  0  0
   13.6277   -6.3459   20.9114 C   0  0  0  0  0  0  0  0  0  0  0  0
   12.9541   -6.3366   19.6885 C   0  0  0  0  0  0  0  0  0  0  0  0
   13.5290   -6.9308   18.5604 C   0  0  0  0  0  0  0  0  0  0  0  0
   12.8421   -6.9005   17.3912 F   0  0  0  0  0  0  0  0  0  0  0  0
   17.0625  -10.4685   12.9698 O   0  0  0  0  0  0  0  0  0  0  0  0
   16.9961   -9.1591   12.4204 C   0  0  0  0  0  0  0  0  0  0  0  0
   17.5895   -9.2960    8.2481 N   0  0  0  0  0  0  0  0  0  0  0  0
   17.8734   -9.2119    6.9504 N   0  0  0  0  0  0  0  0  0  0  0  0
   18.7810   -8.2403    6.6918 C   0  0  0  0  0  0  0  0  0  0  0  0
   19.2739   -7.4325    8.1001 S   0  0  0  0  0  0  0  0  0  0  0  0
   18.2579   -8.4088    9.0149 C   0  0  0  0  0  0  0  0  0  0  0  0
   18.0843   -8.3544   10.3580 N   0  0  0  0  0  0  0  0  0  0  0  0
   17.2182   -9.2236   10.9518 C   0  0  0  0  0  0  0  0  0  0  0  0
   16.5020  -10.1518   10.1780 C   0  0  0  0  0  0  0  0  0  0  0  0
   16.7080  -10.1750    8.7942 C   0  0  0  0  0  0  0  0  0  0  0  0
   16.0828  -10.9968    8.0727 O   0  0  0  0  0  0  0  0  0  0  0  0
   19.2773   -7.9296    5.3261 C   0  0  0  0  0  0  0  0  0  0  0  0
 20 21  1  0  0  0
 21 22  2  0  0  0
 22 23  1  0  0  0
 23 24  1  0  0  0
 24 25  2  0  0  0
 25 26  1  0  0  0
 26 19  1  0  0  0
 19 18  1  0  0  0
 18  1  1  0  0  0
  1  2  2  0  0  0
  2  3  1  0  0  0
  3  4  2  0  0  0
  4  5  1  0  0  0
  5  6  2  0  0  0
  5  7  1  0  0  0
  7  8  1  0  0  0
  8  9  2  0  0  0
  8 11  1  0  0  0
 11 12  2  0  0  0
 12 13  1  0  0  0
 13 14  2  0  0  0
 14 15  1  0  0  0
 15 16  2  0  0  0
 16 17  1  0  0  0
 26 27  2  0  0  0
 27 28  1  0  0  0
 28 29  2  0  0  0
 22 30  1  0  0  0
 24 20  1  0  0  0
  6  1  1  0  0  0
 16 11  1  0  0  0
 28 20  1  0  0  0
  7 10  1  0  0  0
M  END
>  <minimizedAffinity>
-8.49338

>  <minimizedRMSD>
1.10142

$$$$
ChemDiv-G756-1431 MCULE-4045147659 MolPort-007-879-824 PubChem-46356578 ZINC000033068149 ZINC33068149


 33 36  0  0  0  0  0  0  0  0999 V2000
   17.0081   -9.7431   16.7418 C   0  0  0  0  0  0  0  0  0  0  0  0
   16.9246   -9.2261   15.4403 C   0  0  0  0  0  0  0  0  0  0  0  0
   17.3606   -9.9769   14.3440 C   0  0  0  0  0  0  0  0  0  0  0  0
   17.8854  -11.2617   14.5539 C   0  0  0  0  0  0  0  0  0  0  0  0
   17.9738  -11.7819   15.8476 C   0  0  0  0  0  0  0  0  0  0  0  0
   17.5380  -11.0230   16.9371 C   0  0  0  0  0  0  0  0  0  0  0  0
   15.6861   -7.8692   17.8834 C   0  0  0  0  0  0  0  0  0  0  0  0
   15.1143   -7.4899   16.8274 O   0  0  0  0  0  0  0  0  0  0  0  0
   16.5789   -8.9910   17.8846 N   0  0  0  0  0  0  0  0  0  0  0  0
   16.9330   -9.2737   18.7587 H   0  0  0  0  0  0  0  0  0  0  0  0
   15.3973   -7.1624   19.1626 C   0  0  0  0  0  0  0  0  0  0  0  0
   14.1009   -6.5761   19.1216 O   0  0  0  0  0  0  0  0  0  0  0  0
    9.3381   -9.4709   17.9727 C   0  0  0  0  0  0  0  0  0  0  0  0
   10.5853   -8.7228   18.2779 C   0  0  0  0  0  0  0  0  0  0  0  0
   11.3761   -9.0991   19.3666 C   0  0  0  0  0  0  0  0  0  0  0  0
   12.5480   -8.3932   19.6557 C   0  0  0  0  0  0  0  0  0  0  0  0
   12.9374   -7.3065   18.8549 C   0  0  0  0  0  0  0  0  0  0  0  0
   12.1393   -6.9353   17.7675 C   0  0  0  0  0  0  0  0  0  0  0  0
   10.9660   -7.6404   17.4792 C   0  0  0  0  0  0  0  0  0  0  0  0
   17.2649   -9.4225   13.0653 O   0  0  0  0  0  0  0  0  0  0  0  0
   16.3136   -9.8616   12.1045 C   0  0  0  0  0  0  0  0  0  0  0  0
   16.8385   -9.6083   10.7367 C   0  0  0  0  0  0  0  0  0  0  0  0
   16.2407  -10.2167    9.6372 C   0  0  0  0  0  0  0  0  0  0  0  0
   16.7250   -9.9275    8.3622 C   0  0  0  0  0  0  0  0  0  0  0  0
   16.1872  -10.4817    7.3639 O   0  0  0  0  0  0  0  0  0  0  0  0
   17.7687   -9.0543    8.2057 N   0  0  0  0  0  0  0  0  0  0  0  0
   18.2407   -8.7689    6.9555 C   0  0  0  0  0  0  0  0  0  0  0  0
   19.3021   -7.8798    6.7796 C   0  0  0  0  0  0  0  0  0  0  0  0
   19.8114   -7.5830    5.4156 C   0  0  0  0  0  0  0  0  0  0  0  0
   19.8859   -7.2803    7.8941 C   0  0  0  0  0  0  0  0  0  0  0  0
   19.4028   -7.5707    9.1685 C   0  0  0  0  0  0  0  0  0  0  0  0
   18.3378   -8.4635    9.3127 C   0  0  0  0  0  0  0  0  0  0  0  0
   17.8670   -8.7423   10.5556 N   0  0  0  0  0  0  0  0  0  0  0  0
 13 14  1  0  0  0
 14 15  2  0  0  0
 15 16  1  0  0  0
 16 17  2  0  0  0
 17 12  1  0  0  0
 17 18  1  0  0  0
 12 11  1  0  0  0
 11  7  1  0  0  0
  7  8  2  0  0  0
  7  9  1  0  0  0
  9  1  1  0  0  0
  1  2  2  0  0  0
  2  3  1  0  0  0
  3 20  1  0  0  0
  3  4  2  0  0  0
 20 21  1  0  0  0
 21 22  1  0  0  0
 22 23  2  0  0  0
 23 24  1  0  0  0
 24 25  2  0  0  0
 24 26  1  0  0  0
 26 27  1  0  0  0
 27 28  2  0  0  0
 28 29  1  0  0  0
 28 30  1  0  0  0
 30 31  2  0  0  0
 31 32  1  0  0  0
 32 33  2  0  0  0
 32 26  1  0  0  0
 33 22  1  0  0  0
  4  5  1  0  0  0
  5  6  2  0  0  0
  6  1  1  0  0  0
 18 19  2  0  0  0
 19 14  1  0  0  0
  9 10  1  0  0  0
M  END
>  <minimizedAffinity>
-8.49005

>  <minimizedRMSD>
1.66348

$$$$
ChemDiv-C679-4178 MCULE-7880313193 MolPort-007-655-790 PubChem-46258322 ZINC000013367958


 31 34  0  0  0  0  0  0  0  0999 V2000
   17.8542  -10.2967   14.2720 C   0  0  0  0  0  0  0  0  0  0  0  0
   18.4066  -11.5430   14.6070 C   0  0  0  0  0  0  0  0  0  0  0  0
   18.2566  -12.0542   15.8984 C   0  0  0  0  0  0  0  0  0  0  0  0
   17.5538  -11.3246   16.8609 C   0  0  0  0  0  0  0  0  0  0  0  0
   16.9972  -10.0819   16.5410 C   0  0  0  0  0  0  0  0  0  0  0  0
   17.1524   -9.5744   15.2420 C   0  0  0  0  0  0  0  0  0  0  0  0
   16.2825   -9.3643   17.5564 N   0  0  0  0  0  0  0  0  0  0  0  0
   15.4652   -8.1978   17.3738 C   0  0  0  0  0  0  0  0  0  0  0  0
   15.3119   -7.6942   16.2277 O   0  0  0  0  0  0  0  0  0  0  0  0
   16.3605   -9.7078   18.4757 H   0  0  0  0  0  0  0  0  0  0  0  0
   14.8001   -7.5831   18.5363 C   0  0  0  0  0  0  0  0  0  0  0  0
   15.3986   -7.6339   19.8040 C   0  0  0  0  0  0  0  0  0  0  0  0
   14.7684   -7.0510   20.9074 C   0  0  0  0  0  0  0  0  0  0  0  0
   13.5348   -6.4132   20.7515 C   0  0  0  0  0  0  0  0  0  0  0  0
   12.9311   -6.3582   19.4924 C   0  0  0  0  0  0  0  0  0  0  0  0
   13.5612   -6.9409   18.3889 C   0  0  0  0  0  0  0  0  0  0  0  0
   17.9864   -9.7563   12.9904 O   0  0  0  0  0  0  0  0  0  0  0  0
   16.8841   -9.2353   12.2594 C   0  0  0  0  0  0  0  0  0  0  0  0
   17.7055   -9.3106    8.1245 N   0  0  0  0  0  0  0  0  0  0  0  0
   16.7302  -10.1328    8.5939 C   0  0  0  0  0  0  0  0  0  0  0  0
   16.0871  -10.8846    7.8140 O   0  0  0  0  0  0  0  0  0  0  0  0
   16.4470  -10.1296    9.9642 C   0  0  0  0  0  0  0  0  0  0  0  0
   17.1856   -9.2799   10.8044 C   0  0  0  0  0  0  0  0  0  0  0  0
   18.1486   -8.4659   10.2863 N   0  0  0  0  0  0  0  0  0  0  0  0
   18.3945   -8.4987    8.9538 C   0  0  0  0  0  0  0  0  0  0  0  0
   19.5336   -7.5827    8.1270 S   0  0  0  0  0  0  0  0  0  0  0  0
   19.0657   -8.3118    6.6678 C   0  0  0  0  0  0  0  0  0  0  0  0
   18.0696   -9.2158    6.8480 N   0  0  0  0  0  0  0  0  0  0  0  0
   19.6732   -7.9950    5.3425 C   0  0  0  0  0  0  0  0  0  0  0  0
   18.6854   -8.2781    4.2275 C   0  0  0  0  0  0  0  0  0  0  0  0
   20.1032   -6.5419    5.2924 C   0  0  0  0  0  0  0  0  0  0  0  0
 19 20  1  0  0  0
 20 21  2  0  0  0
 20 22  1  0  0  0
 22 23  2  0  0  0
 23 24  1  0  0  0
 24 25  2  0  0  0
 25 26  1  0  0  0
 26 27  1  0  0  0
 27 29  1  0  0  0
 29 30  1  0  0  0
 29 31  1  0  0  0
 27 28  2  0  0  0
 23 18  1  0  0  0
 18 17  1  0  0  0
 17  1  1  0  0  0
  1  2  2  0  0  0
  2  3  1  0  0  0
  3  4  2  0  0  0
  4  5  1  0  0  0
  5  6  2  0  0  0
  5  7  1  0  0  0
  7  8  1  0  0  0
  8 11  1  0  0  0
 11 12  2  0  0  0
 12 13  1  0  0  0
 13 14  2  0  0  0
 14 15  1  0  0  0
 15 16  2  0  0  0
  8  9  2  0  0  0
 25 19  1  0  0  0
  6  1  1  0  0  0
 16 11  1  0  0  0
 28 19  1  0  0  0
  7 10  1  0  0  0
M  END
>  <minimizedAffinity>
-8.48458

>  <minimizedRMSD>
1.10048

$$$$
ChemDiv-C679-6500 MCULE-6831271630 MolPort-007-656-251 PubChem-45106281 ZINC000013368523


 31 34  0  0  0  0  0  0  0  0999 V2000
   17.1131   -9.6497   14.3051 C   0  0  0  0  0  0  0  0  0  0  0  0
   17.9628  -10.7458   14.5215 C   0  0  0  0  0  0  0  0  0  0  0  0
   18.2028  -11.2039   15.8190 C   0  0  0  0  0  0  0  0  0  0  0  0
   17.5961  -10.5703   16.9068 C   0  0  0  0  0  0  0  0  0  0  0  0
   16.7463   -9.4778   16.7062 C   0  0  0  0  0  0  0  0  0  0  0  0
   16.5101   -9.0226   15.4000 C   0  0  0  0  0  0  0  0  0  0  0  0
   16.1442   -8.8538   17.8485 N   0  0  0  0  0  0  0  0  0  0  0  0
   15.0789   -7.8909   17.8431 C   0  0  0  0  0  0  0  0  0  0  0  0
   14.5616   -7.5119   16.7571 O   0  0  0  0  0  0  0  0  0  0  0  0
   16.4987   -9.1131   18.7296 H   0  0  0  0  0  0  0  0  0  0  0  0
   14.5840   -7.3429   19.1182 C   0  0  0  0  0  0  0  0  0  0  0  0
   15.3228   -7.5150   20.2980 C   0  0  0  0  0  0  0  0  0  0  0  0
   14.8538   -6.9959   21.5084 C   0  0  0  0  0  0  0  0  0  0  0  0
   13.6424   -6.3003   21.5479 C   0  0  0  0  0  0  0  0  0  0  0  0
   12.8999   -6.1237   20.3773 C   0  0  0  0  0  0  0  0  0  0  0  0
   13.3688   -6.6430   19.1670 C   0  0  0  0  0  0  0  0  0  0  0  0
   16.8535   -9.1653   13.0207 O   0  0  0  0  0  0  0  0  0  0  0  0
   16.1386   -9.9155   12.0475 C   0  0  0  0  0  0  0  0  0  0  0  0
   17.7009   -9.0982    8.2172 N   0  0  0  0  0  0  0  0  0  0  0  0
   18.2895   -8.7329    7.0809 N   0  0  0  0  0  0  0  0  0  0  0  0
   19.2842   -7.8364    7.2893 C   0  0  0  0  0  0  0  0  0  0  0  0
   19.4602   -7.4479    8.9323 S   0  0  0  0  0  0  0  0  0  0  0  0
   18.2093   -8.5012    9.3157 C   0  0  0  0  0  0  0  0  0  0  0  0
   17.7236   -8.7560   10.5551 N   0  0  0  0  0  0  0  0  0  0  0  0
   16.6991   -9.6438   10.6976 C   0  0  0  0  0  0  0  0  0  0  0  0
   16.1440  -10.2738    9.5715 C   0  0  0  0  0  0  0  0  0  0  0  0
   16.6733   -9.9830    8.3092 C   0  0  0  0  0  0  0  0  0  0  0  0
   16.2005  -10.5344    7.2800 O   0  0  0  0  0  0  0  0  0  0  0  0
   20.0890   -7.2343    6.1883 C   0  0  0  0  0  0  0  0  0  0  0  0
   19.7247   -7.8541    4.8491 C   0  0  0  0  0  0  0  0  0  0  0  0
   20.8209   -7.6050    3.8300 C   0  0  0  0  0  0  0  0  0  0  0  0
 19 20  1  0  0  0
 20 21  2  0  0  0
 21 22  1  0  0  0
 22 23  1  0  0  0
 23 24  2  0  0  0
 24 25  1  0  0  0
 25 18  1  0  0  0
 18 17  1  0  0  0
 17  1  1  0  0  0
  1  2  2  0  0  0
  2  3  1  0  0  0
  3  4  2  0  0  0
  4  5  1  0  0  0
  5  6  2  0  0  0
  5  7  1  0  0  0
  7  8  1  0  0  0
  8 11  1  0  0  0
 11 12  2  0  0  0
 12 13  1  0  0  0
 13 14  2  0  0  0
 14 15  1  0  0  0
 15 16  2  0  0  0
  8  9  2  0  0  0
 25 26  2  0  0  0
 26 27  1  0  0  0
 27 28  2  0  0  0
 21 29  1  0  0  0
 29 30  1  0  0  0
 30 31  1  0  0  0
 23 19  1  0  0  0
  6  1  1  0  0  0
 16 11  1  0  0  0
 27 19  1  0  0  0
  7 10  1  0  0  0
M  END
>  <minimizedAffinity>
-8.47520

>  <minimizedRMSD>
1.47400

$$$$
ChemDiv-C679-6219 MCULE-8349667741 MolPort-010-755-233 PubChem-50744322 ZINC000041085736


 32 35  0  0  0  0  0  0  0  0999 V2000
   17.3641  -10.1825   14.4446 C   0  0  0  0  0  0  0  0  0  0  0  0
   17.9839  -11.3820   14.8288 C   0  0  0  0  0  0  0  0  0  0  0  0
   18.0106  -11.7596   16.1735 C   0  0  0  0  0  0  0  0  0  0  0  0
   17.4190  -10.9426   17.1408 C   0  0  0  0  0  0  0  0  0  0  0  0
   16.7976   -9.7449   16.7720 C   0  0  0  0  0  0  0  0  0  0  0  0
   16.7759   -9.3705   15.4199 C   0  0  0  0  0  0  0  0  0  0  0  0
   16.1988   -8.9359   17.7928 N   0  0  0  0  0  0  0  0  0  0  0  0
   15.1713   -7.9523   17.6157 C   0  0  0  0  0  0  0  0  0  0  0  0
   14.6814   -7.7140   16.4798 O   0  0  0  0  0  0  0  0  0  0  0  0
   16.5275   -9.0699   18.7111 H   0  0  0  0  0  0  0  0  0  0  0  0
   14.6941   -7.1756   18.7937 C   0  0  0  0  0  0  0  0  0  0  0  0
   15.4131   -7.5596   19.9617 O   0  0  0  0  0  0  0  0  0  0  0  0
   15.2723   -6.9140   21.1958 C   0  0  0  0  0  0  0  0  0  0  0  0
   16.4129   -6.6795   21.9721 C   0  0  0  0  0  0  0  0  0  0  0  0
   16.3054   -6.0359   23.2093 C   0  0  0  0  0  0  0  0  0  0  0  0
   15.0545   -5.6219   23.6764 C   0  0  0  0  0  0  0  0  0  0  0  0
   13.9106   -5.8503   22.9063 C   0  0  0  0  0  0  0  0  0  0  0  0
   12.5799   -5.4103   23.4012 C   0  0  0  0  0  0  0  0  0  0  0  0
   14.0181   -6.4926   21.6694 C   0  0  0  0  0  0  0  0  0  0  0  0
   17.3191   -9.7753   13.1089 O   0  0  0  0  0  0  0  0  0  0  0  0
   18.4881   -9.4796   12.3565 C   0  0  0  0  0  0  0  0  0  0  0  0
   17.4923   -9.1472    8.2931 N   0  0  0  0  0  0  0  0  0  0  0  0
   17.4126   -8.9139    7.0230 O   0  0  0  0  0  0  0  0  0  0  0  0
   18.4859   -8.2451    6.6480 C   0  0  0  0  0  0  0  0  0  0  0  0
   19.3396   -8.0149    7.7326 C   0  0  0  0  0  0  0  0  0  0  0  0
   18.6329   -8.6246    8.7518 C   0  0  0  0  0  0  0  0  0  0  0  0
   18.9811   -8.7272   10.0580 N   0  0  0  0  0  0  0  0  0  0  0  0
   18.1415   -9.3837   10.9139 C   0  0  0  0  0  0  0  0  0  0  0  0
   16.9283   -9.9308   10.4481 C   0  0  0  0  0  0  0  0  0  0  0  0
   16.6139   -9.8019    9.0898 C   0  0  0  0  0  0  0  0  0  0  0  0
   15.5474  -10.2828    8.6239 O   0  0  0  0  0  0  0  0  0  0  0  0
   18.7410   -7.8024    5.2521 C   0  0  0  0  0  0  0  0  0  0  0  0
 22 23  1  0  0  0
 23 24  1  0  0  0
 24 25  2  0  0  0
 25 26  1  0  0  0
 26 27  2  0  0  0
 27 28  1  0  0  0
 28 21  1  0  0  0
 21 20  1  0  0  0
 20  1  1  0  0  0
  1  2  2  0  0  0
  2  3  1  0  0  0
  3  4  2  0  0  0
  4  5  1  0  0  0
  5  6  2  0  0  0
  5  7  1  0  0  0
  7  8  1  0  0  0
  8 11  1  0  0  0
 11 12  1  0  0  0
 12 13  1  0  0  0
 13 14  2  0  0  0
 14 15  1  0  0  0
 15 16  2  0  0  0
 16 17  1  0  0  0
 17 18  1  0  0  0
 17 19  2  0  0  0
  8  9  2  0  0  0
 28 29  2  0  0  0
 29 30  1  0  0  0
 30 31  2  0  0  0
 24 32  1  0  0  0
 26 22  1  0  0  0
  6  1  1  0  0  0
 19 13  1  0  0  0
 30 22  1  0  0  0
  7 10  1  0  0  0
M  END
>  <minimizedAffinity>
-8.47496

>  <minimizedRMSD>
2.11821

$$$$
ChemDiv-G357-3026 MCULE-4061144809 MolPort-007-847-908 PubChem-20953178 ZINC000015772196 ZINC15772196


 33 36  0  0  0  0  0  0  0  0999 V2000
   17.1775   -9.9073   14.2223 C   0  0  0  0  0  0  0  0  0  0  0  0
   16.4783   -8.7148   14.4484 C   0  0  0  0  0  0  0  0  0  0  0  0
   16.2114   -8.2903   15.7529 C   0  0  0  0  0  0  0  0  0  0  0  0
   16.6419   -9.0525   16.8486 C   0  0  0  0  0  0  0  0  0  0  0  0
   17.3380  -10.2439   16.6220 C   0  0  0  0  0  0  0  0  0  0  0  0
   17.6056  -10.6699   15.3178 C   0  0  0  0  0  0  0  0  0  0  0  0
   16.3806   -8.6536   18.2004 N   0  0  0  0  0  0  0  0  0  0  0  0
   15.4126   -7.6925   18.6399 C   0  0  0  0  0  0  0  0  0  0  0  0
   14.7132   -7.0442   17.8169 O   0  0  0  0  0  0  0  0  0  0  0  0
   16.9227   -9.0848   18.9000 H   0  0  0  0  0  0  0  0  0  0  0  0
   15.2166   -7.4758   20.0999 C   0  0  0  0  0  0  0  0  0  0  0  0
   13.9164   -6.2343   20.3939 S   0  0  0  0  0  0  0  0  0  0  0  0
   12.6853   -7.1221   19.4449 C   0  0  0  0  0  0  0  0  0  0  0  0
   12.2982   -8.4100   19.8303 C   0  0  0  0  0  0  0  0  0  0  0  0
   11.3344   -9.1016   19.0900 C   0  0  0  0  0  0  0  0  0  0  0  0
   10.7544   -8.5045   17.9662 C   0  0  0  0  0  0  0  0  0  0  0  0
   11.1358   -7.2147   17.5841 C   0  0  0  0  0  0  0  0  0  0  0  0
   12.0989   -6.5228   18.3244 C   0  0  0  0  0  0  0  0  0  0  0  0
   17.4565  -10.3502   12.8468 C   0  0  0  0  0  0  0  0  0  0  0  0
   17.8389  -11.5332   12.6287 O   0  0  0  0  0  0  0  0  0  0  0  0
   17.2960   -9.4557   11.7862 O   0  0  0  0  0  0  0  0  0  0  0  0
   18.3809   -8.6973   11.2723 C   0  0  0  0  0  0  0  0  0  0  0  0
   19.9102   -7.3271    4.2630 C   0  0  0  0  0  0  0  0  0  0  0  0
   19.4350   -7.7492    5.6067 C   0  0  0  0  0  0  0  0  0  0  0  0
   19.9775   -7.3188    6.8223 C   0  0  0  0  0  0  0  0  0  0  0  0
   19.1790   -8.0030    7.7187 C   0  0  0  0  0  0  0  0  0  0  0  0
   19.2389   -7.9753    9.0727 N   0  0  0  0  0  0  0  0  0  0  0  0
   18.3535   -8.7335    9.7862 C   0  0  0  0  0  0  0  0  0  0  0  0
   17.3858   -9.5176    9.1248 C   0  0  0  0  0  0  0  0  0  0  0  0
   17.3635   -9.5128    7.7247 C   0  0  0  0  0  0  0  0  0  0  0  0
   16.5215  -10.1988    7.0883 O   0  0  0  0  0  0  0  0  0  0  0  0
   18.2736   -8.7467    7.0770 N   0  0  0  0  0  0  0  0  0  0  0  0
   18.4359   -8.5870    5.8036 O   0  0  0  0  0  0  0  0  0  0  0  0
 23 24  1  0  0  0
 24 25  2  0  0  0
 25 26  1  0  0  0
 26 27  2  0  0  0
 27 28  1  0  0  0
 28 22  1  0  0  0
 28 29  2  0  0  0
 22 21  1  0  0  0
 21 19  1  0  0  0
 19 20  2  0  0  0
 19  1  1  0  0  0
  1  2  2  0  0  0
  2  3  1  0  0  0
  3  4  2  0  0  0
  4  7  1  0  0  0
  4  5  1  0  0  0
  7  8  1  0  0  0
  8  9  2  0  0  0
  8 11  1  0  0  0
 11 12  1  0  0  0
 12 13  1  0  0  0
 13 14  2  0  0  0
 14 15  1  0  0  0
 15 16  2  0  0  0
 16 17  1  0  0  0
 17 18  2  0  0  0
 18 13  1  0  0  0
  5  6  2  0  0  0
  6  1  1  0  0  0
 29 30  1  0  0  0
 30 31  2  0  0  0
 30 32  1  0  0  0
 32 33  1  0  0  0
 32 26  1  0  0  0
 33 24  1  0  0  0
  7 10  1  0  0  0
M  END
>  <minimizedAffinity>
-8.47318

>  <minimizedRMSD>
1.99408

$$$$
ChemDiv-C679-4002 MCULE-7614549953 MolPort-007-655-734 PubChem-46258299 ZINC000013367810


 30 33  0  0  0  0  0  0  0  0999 V2000
   17.4216  -10.3449   14.2207 C   0  0  0  0  0  0  0  0  0  0  0  0
   18.1494  -11.4946   14.5655 C   0  0  0  0  0  0  0  0  0  0  0  0
   18.2183  -11.9097   15.8975 C   0  0  0  0  0  0  0  0  0  0  0  0
   17.5616  -11.1797   16.8914 C   0  0  0  0  0  0  0  0  0  0  0  0
   16.8328  -10.0321   16.5628 C   0  0  0  0  0  0  0  0  0  0  0  0
   16.7676   -9.6209   15.2227 C   0  0  0  0  0  0  0  0  0  0  0  0
   16.1722   -9.3109   17.6112 N   0  0  0  0  0  0  0  0  0  0  0  0
   15.3616   -8.1339   17.4695 C   0  0  0  0  0  0  0  0  0  0  0  0
   15.1768   -7.6145   16.3354 O   0  0  0  0  0  0  0  0  0  0  0  0
   16.2864   -9.6594   18.5249 H   0  0  0  0  0  0  0  0  0  0  0  0
   14.7406   -7.5273   18.6602 C   0  0  0  0  0  0  0  0  0  0  0  0
   15.3644   -7.6256   19.9122 C   0  0  0  0  0  0  0  0  0  0  0  0
   14.7754   -7.0517   21.0425 C   0  0  0  0  0  0  0  0  0  0  0  0
   13.5580   -6.3750   20.9292 C   0  0  0  0  0  0  0  0  0  0  0  0
   12.9297   -6.2715   19.6859 C   0  0  0  0  0  0  0  0  0  0  0  0
   13.5187   -6.8457   18.5554 C   0  0  0  0  0  0  0  0  0  0  0  0
   12.9322   -5.7646   22.1307 C   0  0  0  0  0  0  0  0  0  0  0  0
   17.3323   -9.9023   12.8986 O   0  0  0  0  0  0  0  0  0  0  0  0
   18.3949   -9.2232   12.2427 C   0  0  0  0  0  0  0  0  0  0  0  0
   17.6937   -9.1704    8.0856 N   0  0  0  0  0  0  0  0  0  0  0  0
   17.6005   -9.0567    6.7629 N   0  0  0  0  0  0  0  0  0  0  0  0
   18.5989   -8.3001    6.2471 C   0  0  0  0  0  0  0  0  0  0  0  0
   19.6571   -7.7325    7.4454 S   0  0  0  0  0  0  0  0  0  0  0  0
   18.7470   -8.5168    8.6196 C   0  0  0  0  0  0  0  0  0  0  0  0
   18.9915   -8.5282    9.9527 N   0  0  0  0  0  0  0  0  0  0  0  0
   18.1562   -9.2233   10.7755 C   0  0  0  0  0  0  0  0  0  0  0  0
   17.0477   -9.9065   10.2489 C   0  0  0  0  0  0  0  0  0  0  0  0
   16.8295   -9.8699    8.8674 C   0  0  0  0  0  0  0  0  0  0  0  0
   15.8469  -10.4759    8.3635 O   0  0  0  0  0  0  0  0  0  0  0  0
   18.7381   -8.0114    4.7961 C   0  0  0  0  0  0  0  0  0  0  0  0
 20 21  1  0  0  0
 21 22  2  0  0  0
 22 23  1  0  0  0
 23 24  1  0  0  0
 24 25  2  0  0  0
 25 26  1  0  0  0
 26 19  1  0  0  0
 19 18  1  0  0  0
 18  1  1  0  0  0
  1  2  2  0  0  0
  2  3  1  0  0  0
  3  4  2  0  0  0
  4  5  1  0  0  0
  5  6  2  0  0  0
  5  7  1  0  0  0
  7  8  1  0  0  0
  8  9  2  0  0  0
  8 11  1  0  0  0
 11 12  2  0  0  0
 12 13  1  0  0  0
 13 14  2  0  0  0
 14 15  1  0  0  0
 15 16  2  0  0  0
 14 17  1  0  0  0
 26 27  2  0  0  0
 27 28  1  0  0  0
 28 29  2  0  0  0
 22 30  1  0  0  0
 24 20  1  0  0  0
  6  1  1  0  0  0
 16 11  1  0  0  0
 28 20  1  0  0  0
  7 10  1  0  0  0
M  END
>  <minimizedAffinity>
-8.47018

>  <minimizedRMSD>
0.98271

$$$$
ChemDiv-C679-4380 MCULE-7600859706 MolPort-007-655-860 PubChem-20874254 ZINC000013368090


 33 36  0  0  0  0  0  0  0  0999 V2000
   17.3715  -10.1751   14.2212 C   0  0  0  0  0  0  0  0  0  0  0  0
   17.9708  -11.4050   14.5355 C   0  0  0  0  0  0  0  0  0  0  0  0
   18.0231  -11.8430   15.8609 C   0  0  0  0  0  0  0  0  0  0  0  0
   17.4774  -11.0562   16.8784 C   0  0  0  0  0  0  0  0  0  0  0  0
   16.8775   -9.8283   16.5800 C   0  0  0  0  0  0  0  0  0  0  0  0
   16.8285   -9.3944   15.2465 C   0  0  0  0  0  0  0  0  0  0  0  0
   16.3268   -9.0509   17.6517 N   0  0  0  0  0  0  0  0  0  0  0  0
   15.3274   -8.0291   17.5439 C   0  0  0  0  0  0  0  0  0  0  0  0
   14.8236   -7.7208   16.4318 O   0  0  0  0  0  0  0  0  0  0  0  0
   16.6708   -9.2384   18.5549 H   0  0  0  0  0  0  0  0  0  0  0  0
   14.8529   -7.3427   18.7737 C   0  0  0  0  0  0  0  0  0  0  0  0
   13.4315   -7.3139   18.7841 O   0  0  0  0  0  0  0  0  0  0  0  0
   12.6987   -6.5404   19.6879 C   0  0  0  0  0  0  0  0  0  0  0  0
   13.1155   -6.3692   21.0187 C   0  0  0  0  0  0  0  0  0  0  0  0
   12.3613   -5.5866   21.8976 C   0  0  0  0  0  0  0  0  0  0  0  0
   11.1876   -4.9711   21.4532 C   0  0  0  0  0  0  0  0  0  0  0  0
   10.7676   -5.1391   20.1307 C   0  0  0  0  0  0  0  0  0  0  0  0
   11.5218   -5.9218   19.2514 C   0  0  0  0  0  0  0  0  0  0  0  0
   10.4559   -4.2137   22.3050 F   0  0  0  0  0  0  0  0  0  0  0  0
   17.3019   -9.7080   12.9063 O   0  0  0  0  0  0  0  0  0  0  0  0
   18.4263   -9.1706   12.2223 C   0  0  0  0  0  0  0  0  0  0  0  0
   17.6941   -9.1818    8.0696 N   0  0  0  0  0  0  0  0  0  0  0  0
   17.5873   -9.0840    6.7466 N   0  0  0  0  0  0  0  0  0  0  0  0
   18.5817   -8.3355    6.2106 C   0  0  0  0  0  0  0  0  0  0  0  0
   19.6429   -7.7404    7.3946 S   0  0  0  0  0  0  0  0  0  0  0  0
   18.7493   -8.5174    8.5861 C   0  0  0  0  0  0  0  0  0  0  0  0
   19.0034   -8.5073    9.9175 N   0  0  0  0  0  0  0  0  0  0  0  0
   18.1761   -9.1924   10.7570 C   0  0  0  0  0  0  0  0  0  0  0  0
   17.0647   -9.8855   10.2489 C   0  0  0  0  0  0  0  0  0  0  0  0
   16.8363   -9.8702    8.8683 C   0  0  0  0  0  0  0  0  0  0  0  0
   15.8500  -10.4838    8.3811 O   0  0  0  0  0  0  0  0  0  0  0  0
   18.6839   -8.0315    4.7576 C   0  0  0  0  0  0  0  0  0  0  0  0
   20.1211   -7.7121    4.3978 C   0  0  0  0  0  0  0  0  0  0  0  0
 22 23  1  0  0  0
 23 24  2  0  0  0
 24 25  1  0  0  0
 25 26  1  0  0  0
 26 27  2  0  0  0
 27 28  1  0  0  0
 28 21  1  0  0  0
 21 20  1  0  0  0
 20  1  1  0  0  0
  1  2  2  0  0  0
  2  3  1  0  0  0
  3  4  2  0  0  0
  4  5  1  0  0  0
  5  6  2  0  0  0
  5  7  1  0  0  0
  7  8  1  0  0  0
  8 11  1  0  0  0
 11 12  1  0  0  0
 12 13  1  0  0  0
 13 14  2  0  0  0
 14 15  1  0  0  0
 15 16  2  0  0  0
 16 17  1  0  0  0
 17 18  2  0  0  0
 16 19  1  0  0  0
  8  9  2  0  0  0
 28 29  2  0  0  0
 29 30  1  0  0  0
 30 31  2  0  0  0
 24 32  1  0  0  0
 32 33  1  0  0  0
 26 22  1  0  0  0
  6  1  1  0  0  0
 18 13  1  0  0  0
 30 22  1  0  0  0
  7 10  1  0  0  0
M  END
>  <minimizedAffinity>
-8.46950

>  <minimizedRMSD>
1.08123

$$$$
ChemDiv-G756-1001 MCULE-3949583123 MolPort-010-744-697 PubChem-50802642 ZINC000033268618 ZINC33268618


 33 36  0  0  0  0  0  0  0  0999 V2000
   16.9981   -9.8526   16.7318 C   0  0  0  0  0  0  0  0  0  0  0  0
   16.9754   -9.3884   15.4076 C   0  0  0  0  0  0  0  0  0  0  0  0
   17.4303  -10.1958   14.3602 C   0  0  0  0  0  0  0  0  0  0  0  0
   17.9124  -11.4838   14.6427 C   0  0  0  0  0  0  0  0  0  0  0  0
   17.9358  -11.9529   15.9581 C   0  0  0  0  0  0  0  0  0  0  0  0
   17.4790  -11.1389   16.9979 C   0  0  0  0  0  0  0  0  0  0  0  0
   15.5622   -7.9965   17.7622 C   0  0  0  0  0  0  0  0  0  0  0  0
   15.0612   -7.6318   16.6653 O   0  0  0  0  0  0  0  0  0  0  0  0
   16.5300   -9.0517   17.8250 N   0  0  0  0  0  0  0  0  0  0  0  0
   16.9132   -9.2468   18.7106 H   0  0  0  0  0  0  0  0  0  0  0  0
   15.1301   -7.3305   19.0235 C   0  0  0  0  0  0  0  0  0  0  0  0
   13.8786   -6.6763   18.8351 O   0  0  0  0  0  0  0  0  0  0  0  0
    8.9566   -9.3934   17.9593 C   0  0  0  0  0  0  0  0  0  0  0  0
   10.2439   -8.6899   18.1962 C   0  0  0  0  0  0  0  0  0  0  0  0
   11.0993   -9.1219   19.2138 C   0  0  0  0  0  0  0  0  0  0  0  0
   12.3095   -8.4592   19.4363 C   0  0  0  0  0  0  0  0  0  0  0  0
   12.6731   -7.3603   18.6397 C   0  0  0  0  0  0  0  0  0  0  0  0
   11.8099   -6.9331   17.6247 C   0  0  0  0  0  0  0  0  0  0  0  0
   10.5988   -7.5954   17.4024 C   0  0  0  0  0  0  0  0  0  0  0  0
   17.3906   -9.6978   13.0555 O   0  0  0  0  0  0  0  0  0  0  0  0
   18.5653   -9.3897   12.3165 C   0  0  0  0  0  0  0  0  0  0  0  0
   18.2346   -9.2890   10.8706 C   0  0  0  0  0  0  0  0  0  0  0  0
   17.0547   -9.8463   10.3869 C   0  0  0  0  0  0  0  0  0  0  0  0
   16.7593   -9.7221    9.0302 C   0  0  0  0  0  0  0  0  0  0  0  0
   15.6934  -10.2334    8.5882 O   0  0  0  0  0  0  0  0  0  0  0  0
   17.6188   -9.0553    8.1980 N   0  0  0  0  0  0  0  0  0  0  0  0
   17.3291   -8.9360    6.8677 C   0  0  0  0  0  0  0  0  0  0  0  0
   18.1949   -8.2608    6.0054 C   0  0  0  0  0  0  0  0  0  0  0  0
   19.3673   -7.7045    6.5130 C   0  0  0  0  0  0  0  0  0  0  0  0
   20.3006   -6.9818    5.6101 C   0  0  0  0  0  0  0  0  0  0  0  0
   19.6626   -7.8262    7.8695 C   0  0  0  0  0  0  0  0  0  0  0  0
   18.7763   -8.5078    8.7067 C   0  0  0  0  0  0  0  0  0  0  0  0
   19.0673   -8.6281   10.0277 N   0  0  0  0  0  0  0  0  0  0  0  0
 13 14  1  0  0  0
 14 15  2  0  0  0
 15 16  1  0  0  0
 16 17  2  0  0  0
 17 12  1  0  0  0
 17 18  1  0  0  0
 12 11  1  0  0  0
 11  7  1  0  0  0
  7  8  2  0  0  0
  7  9  1  0  0  0
  9  1  1  0  0  0
  1  2  2  0  0  0
  2  3  1  0  0  0
  3 20  1  0  0  0
  3  4  2  0  0  0
 20 21  1  0  0  0
 21 22  1  0  0  0
 22 23  2  0  0  0
 23 24  1  0  0  0
 24 25  2  0  0  0
 24 26  1  0  0  0
 26 27  1  0  0  0
 27 28  2  0  0  0
 28 29  1  0  0  0
 29 30  1  0  0  0
 29 31  2  0  0  0
 31 32  1  0  0  0
 32 33  2  0  0  0
 32 26  1  0  0  0
 33 22  1  0  0  0
  4  5  1  0  0  0
  5  6  2  0  0  0
  6  1  1  0  0  0
 18 19  2  0  0  0
 19 14  1  0  0  0
  9 10  1  0  0  0
M  END
>  <minimizedAffinity>
-8.44803

>  <minimizedRMSD>
1.00009

$$$$
ChemDiv-D439-4155 MCULE-1862601540 MolPort-007-706-785 PubChem-46268367 ZINC000021797159 ZINC21797159


 35 38  0  0  0  0  0  0  0  0999 V2000
   17.1041   -9.7882   14.2248 C   0  0  0  0  0  0  0  0  0  0  0  0
   16.5386   -9.1287   15.3224 C   0  0  0  0  0  0  0  0  0  0  0  0
   16.7672   -9.5655   16.6335 C   0  0  0  0  0  0  0  0  0  0  0  0
   17.5724  -10.6842   16.8488 C   0  0  0  0  0  0  0  0  0  0  0  0
   18.1458  -11.3572   15.7695 C   0  0  0  0  0  0  0  0  0  0  0  0
   17.9237  -10.9241   14.4587 C   0  0  0  0  0  0  0  0  0  0  0  0
   18.5658  -11.7124   13.3699 C   0  0  0  0  0  0  0  0  0  0  0  0
   16.1938   -8.8995   17.7663 N   0  0  0  0  0  0  0  0  0  0  0  0
   15.1204   -7.9497   17.7512 C   0  0  0  0  0  0  0  0  0  0  0  0
   14.5752   -7.5965   16.6722 O   0  0  0  0  0  0  0  0  0  0  0  0
   16.5774   -9.1172   18.6465 H   0  0  0  0  0  0  0  0  0  0  0  0
   14.6628   -7.3398   19.0313 C   0  0  0  0  0  0  0  0  0  0  0  0
   15.7829   -6.9026   19.7942 O   0  0  0  0  0  0  0  0  0  0  0  0
   15.8495   -7.0137   21.1872 C   0  0  0  0  0  0  0  0  0  0  0  0
   16.9609   -6.4898   21.8566 C   0  0  0  0  0  0  0  0  0  0  0  0
   17.0546   -6.5821   23.2489 C   0  0  0  0  0  0  0  0  0  0  0  0
   16.0348   -7.1984   23.9795 C   0  0  0  0  0  0  0  0  0  0  0  0
   16.1530   -7.3124   25.7223 Cl  0  0  0  0  0  0  0  0  0  0  0  0
   14.9195   -7.7211   23.3192 C   0  0  0  0  0  0  0  0  0  0  0  0
   14.8259   -7.6289   21.9277 C   0  0  0  0  0  0  0  0  0  0  0  0
   16.8047   -9.2671   12.9562 O   0  0  0  0  0  0  0  0  0  0  0  0
   16.2512   -9.9993   11.8721 C   0  0  0  0  0  0  0  0  0  0  0  0
   18.8718   -8.2678    7.3670 N   0  0  0  0  0  0  0  0  0  0  0  0
   19.7673   -7.4701    8.0014 C   0  0  0  0  0  0  0  0  0  0  0  0
   19.5926   -7.5050    9.3513 N   0  0  0  0  0  0  0  0  0  0  0  0
   18.5569   -8.3581    9.4773 C   0  0  0  0  0  0  0  0  0  0  0  0
   17.9777   -8.7302   10.6450 N   0  0  0  0  0  0  0  0  0  0  0  0
   16.9270   -9.6030   10.6089 C   0  0  0  0  0  0  0  0  0  0  0  0
   16.4453  -10.0942    9.3785 C   0  0  0  0  0  0  0  0  0  0  0  0
   17.0746   -9.6814    8.1976 C   0  0  0  0  0  0  0  0  0  0  0  0
   16.6740  -10.1003    7.0795 O   0  0  0  0  0  0  0  0  0  0  0  0
   18.1201   -8.8175    8.3029 N   0  0  0  0  0  0  0  0  0  0  0  0
   17.6167   -7.6303    5.3658 C   0  0  0  0  0  0  0  0  0  0  0  0
   18.7454   -8.4749    5.9263 C   0  0  0  0  0  0  0  0  0  0  0  0
   20.0466   -8.1357    5.2237 C   0  0  0  0  0  0  0  0  0  0  0  0
 33 34  1  0  0  0
 34 35  1  0  0  0
 34 23  1  0  0  0
 23 24  1  0  0  0
 24 25  2  0  0  0
 25 26  1  0  0  0
 26 27  2  0  0  0
 27 28  1  0  0  0
 28 22  1  0  0  0
 28 29  2  0  0  0
 22 21  1  0  0  0
 21  1  1  0  0  0
  1  2  2  0  0  0
  2  3  1  0  0  0
  3  8  1  0  0  0
  3  4  2  0  0  0
  8  9  1  0  0  0
  9 10  2  0  0  0
  9 12  1  0  0  0
 12 13  1  0  0  0
 13 14  1  0  0  0
 14 15  2  0  0  0
 15 16  1  0  0  0
 16 17  2  0  0  0
 17 18  1  0  0  0
 17 19  1  0  0  0
 19 20  2  0  0  0
 20 14  1  0  0  0
  4  5  1  0  0  0
  5  6  2  0  0  0
  6  7  1  0  0  0
  6  1  1  0  0  0
 29 30  1  0  0  0
 30 31  2  0  0  0
 30 32  1  0  0  0
 32 23  1  0  0  0
 32 26  1  0  0  0
  8 11  1  0  0  0
M  END
>  <minimizedAffinity>
-8.44678

>  <minimizedRMSD>
1.44925

$$$$
ChemDiv-G357-0027 MCULE-3758356017 MolPort-007-847-012 PubChem-46343197 ZINC000015771350


 32 35  0  0  0  0  0  0  0  0999 V2000
   17.2008   -9.9710   14.8024 C   0  0  0  0  0  0  0  0  0  0  0  0
   17.3303  -10.5783   16.0592 C   0  0  0  0  0  0  0  0  0  0  0  0
   16.8399   -9.9433   17.2038 C   0  0  0  0  0  0  0  0  0  0  0  0
   16.2147   -8.6958   17.1091 C   0  0  0  0  0  0  0  0  0  0  0  0
   16.0850   -8.0879   15.8516 C   0  0  0  0  0  0  0  0  0  0  0  0
   16.5747   -8.7215   14.7063 C   0  0  0  0  0  0  0  0  0  0  0  0
   15.7250   -8.0774   18.3068 N   0  0  0  0  0  0  0  0  0  0  0  0
   14.3915   -7.6029   18.5511 C   0  0  0  0  0  0  0  0  0  0  0  0
   13.5059   -7.7060   17.6595 O   0  0  0  0  0  0  0  0  0  0  0  0
   16.3723   -7.9661   19.0401 H   0  0  0  0  0  0  0  0  0  0  0  0
   14.0647   -6.9905   19.8586 C   0  0  0  0  0  0  0  0  0  0  0  0
   14.5951   -7.5573   21.0281 C   0  0  0  0  0  0  0  0  0  0  0  0
   14.3108   -7.0086   22.2807 C   0  0  0  0  0  0  0  0  0  0  0  0
   13.4911   -5.8837   22.3794 C   0  0  0  0  0  0  0  0  0  0  0  0
   12.9559   -5.3078   21.2257 C   0  0  0  0  0  0  0  0  0  0  0  0
   13.2364   -5.8524   19.9684 C   0  0  0  0  0  0  0  0  0  0  0  0
   12.6970   -5.2632   18.8721 F   0  0  0  0  0  0  0  0  0  0  0  0
   17.7137  -10.6350   13.5933 C   0  0  0  0  0  0  0  0  0  0  0  0
   18.0753  -11.8434   13.6407 O   0  0  0  0  0  0  0  0  0  0  0  0
   17.7976   -9.9218   12.3954 O   0  0  0  0  0  0  0  0  0  0  0  0
   16.6744   -9.7478   11.5442 C   0  0  0  0  0  0  0  0  0  0  0  0
   17.9530   -8.9046    7.6157 N   0  0  0  0  0  0  0  0  0  0  0  0
   18.4538   -8.5280    6.4416 N   0  0  0  0  0  0  0  0  0  0  0  0
   19.4372   -7.6068    6.5816 C   0  0  0  0  0  0  0  0  0  0  0  0
   19.7232   -7.2172    8.2080 S   0  0  0  0  0  0  0  0  0  0  0  0
   18.5237   -8.2959    8.6767 C   0  0  0  0  0  0  0  0  0  0  0  0
   18.1303   -8.5596    9.9465 N   0  0  0  0  0  0  0  0  0  0  0  0
   17.1382   -9.4699   10.1594 C   0  0  0  0  0  0  0  0  0  0  0  0
   16.5193  -10.1121    9.0740 C   0  0  0  0  0  0  0  0  0  0  0  0
   16.9532   -9.8111    7.7781 C   0  0  0  0  0  0  0  0  0  0  0  0
   16.4200  -10.3712    6.7836 O   0  0  0  0  0  0  0  0  0  0  0  0
   20.1682   -7.0122    5.4327 C   0  0  0  0  0  0  0  0  0  0  0  0
 22 23  1  0  0  0
 23 24  2  0  0  0
 24 25  1  0  0  0
 25 26  1  0  0  0
 26 27  2  0  0  0
 27 28  1  0  0  0
 28 21  1  0  0  0
 21 20  1  0  0  0
 20 18  1  0  0  0
 18 19  2  0  0  0
 18  1  1  0  0  0
  1  2  2  0  0  0
  2  3  1  0  0  0
  3  4  2  0  0  0
  4  5  1  0  0  0
  5  6  2  0  0  0
  4  7  1  0  0  0
  7  8  1  0  0  0
  8  9  2  0  0  0
  8 11  1  0  0  0
 11 12  2  0  0  0
 12 13  1  0  0  0
 13 14  2  0  0  0
 14 15  1  0  0  0
 15 16  2  0  0  0
 16 17  1  0  0  0
 28 29  2  0  0  0
 29 30  1  0  0  0
 30 31  2  0  0  0
 24 32  1  0  0  0
 26 22  1  0  0  0
  6  1  1  0  0  0
 16 11  1  0  0  0
 30 22  1  0  0  0
  7 10  1  0  0  0
M  END
>  <minimizedAffinity>
-8.43375

>  <minimizedRMSD>
1.06511

$$$$
ChemDiv-C679-4015 MCULE-2485172458 MolPort-007-655-745 PubChem-46258303 ZINC000013367839


 30 33  0  0  0  0  0  0  0  0999 V2000
   17.4139  -10.3440   14.2480 C   0  0  0  0  0  0  0  0  0  0  0  0
   18.1493  -11.4860   14.6025 C   0  0  0  0  0  0  0  0  0  0  0  0
   18.2159  -11.8928   15.9372 C   0  0  0  0  0  0  0  0  0  0  0  0
   17.5492  -11.1622   16.9242 C   0  0  0  0  0  0  0  0  0  0  0  0
   16.8128  -10.0223   16.5856 C   0  0  0  0  0  0  0  0  0  0  0  0
   16.7502   -9.6194   15.2428 C   0  0  0  0  0  0  0  0  0  0  0  0
   16.1429   -9.2996   17.6274 N   0  0  0  0  0  0  0  0  0  0  0  0
   15.3418   -8.1171   17.4786 C   0  0  0  0  0  0  0  0  0  0  0  0
   15.1636   -7.6013   16.3415 O   0  0  0  0  0  0  0  0  0  0  0  0
   16.2427   -9.6514   18.5415 H   0  0  0  0  0  0  0  0  0  0  0  0
   14.7227   -7.5008   18.6653 C   0  0  0  0  0  0  0  0  0  0  0  0
   13.4936   -6.8323   18.5596 C   0  0  0  0  0  0  0  0  0  0  0  0
   12.9072   -6.2481   19.6862 C   0  0  0  0  0  0  0  0  0  0  0  0
   13.5453   -6.3280   20.9269 C   0  0  0  0  0  0  0  0  0  0  0  0
   14.7698   -6.9918   21.0411 C   0  0  0  0  0  0  0  0  0  0  0  0
   15.4487   -7.0770   22.3600 C   0  0  0  0  0  0  0  0  0  0  0  0
   15.3560   -7.5760   19.9144 C   0  0  0  0  0  0  0  0  0  0  0  0
   17.3268   -9.9098   12.9230 O   0  0  0  0  0  0  0  0  0  0  0  0
   18.3889   -9.2306   12.2663 C   0  0  0  0  0  0  0  0  0  0  0  0
   17.6845   -9.1794    8.1093 N   0  0  0  0  0  0  0  0  0  0  0  0
   17.5889   -9.0643    6.7869 N   0  0  0  0  0  0  0  0  0  0  0  0
   18.5873   -8.3089    6.2699 C   0  0  0  0  0  0  0  0  0  0  0  0
   19.6486   -7.7435    7.4670 S   0  0  0  0  0  0  0  0  0  0  0  0
   18.7401   -8.5283    8.6421 C   0  0  0  0  0  0  0  0  0  0  0  0
   18.9859   -8.5393    9.9749 N   0  0  0  0  0  0  0  0  0  0  0  0
   18.1494   -9.2317   10.7990 C   0  0  0  0  0  0  0  0  0  0  0  0
   17.0380   -9.9117   10.2739 C   0  0  0  0  0  0  0  0  0  0  0  0
   16.8187   -9.8756    8.8924 C   0  0  0  0  0  0  0  0  0  0  0  0
   15.8335  -10.4784    8.3899 O   0  0  0  0  0  0  0  0  0  0  0  0
   18.7228   -8.0171    4.8193 C   0  0  0  0  0  0  0  0  0  0  0  0
 20 21  1  0  0  0
 21 22  2  0  0  0
 22 23  1  0  0  0
 23 24  1  0  0  0
 24 25  2  0  0  0
 25 26  1  0  0  0
 26 19  1  0  0  0
 19 18  1  0  0  0
 18  1  1  0  0  0
  1  2  2  0  0  0
  2  3  1  0  0  0
  3  4  2  0  0  0
  4  5  1  0  0  0
  5  6  2  0  0  0
  5  7  1  0  0  0
  7  8  1  0  0  0
  8  9  2  0  0  0
  8 11  1  0  0  0
 11 12  2  0  0  0
 12 13  1  0  0  0
 13 14  2  0  0  0
 14 15  1  0  0  0
 15 16  1  0  0  0
 15 17  2  0  0  0
 26 27  2  0  0  0
 27 28  1  0  0  0
 28 29  2  0  0  0
 22 30  1  0  0  0
 24 20  1  0  0  0
  6  1  1  0  0  0
 17 11  1  0  0  0
 28 20  1  0  0  0
  7 10  1  0  0  0
M  END
>  <minimizedAffinity>
-8.42639

>  <minimizedRMSD>
0.97537

$$$$
ChemDiv-C679-3998 MCULE-1708146421 MolPort-007-655-730 PubChem-46258297 ZINC000013367807


 30 33  0  0  0  0  0  0  0  0999 V2000
   17.4689  -10.6473   14.1265 C   0  0  0  0  0  0  0  0  0  0  0  0
   18.2661  -11.7201   14.5569 C   0  0  0  0  0  0  0  0  0  0  0  0
   18.3323  -12.0470   15.9133 C   0  0  0  0  0  0  0  0  0  0  0  0
   17.6030  -11.3057   16.8465 C   0  0  0  0  0  0  0  0  0  0  0  0
   16.8042  -10.2346   16.4323 C   0  0  0  0  0  0  0  0  0  0  0  0
   16.7428   -9.9110   15.0681 C   0  0  0  0  0  0  0  0  0  0  0  0
   16.0717   -9.4989   17.4215 N   0  0  0  0  0  0  0  0  0  0  0  0
   15.4242   -8.2285   17.2471 C   0  0  0  0  0  0  0  0  0  0  0  0
   15.4668   -7.6325   16.1360 O   0  0  0  0  0  0  0  0  0  0  0  0
   16.0056   -9.9077   18.3147 H   0  0  0  0  0  0  0  0  0  0  0  0
   14.7073   -7.6133   18.3786 C   0  0  0  0  0  0  0  0  0  0  0  0
   13.4545   -7.0106   18.1836 C   0  0  0  0  0  0  0  0  0  0  0  0
   12.7760   -6.4260   19.2573 C   0  0  0  0  0  0  0  0  0  0  0  0
   13.3450   -6.4395   20.5335 C   0  0  0  0  0  0  0  0  0  0  0  0
   14.5934   -7.0362   20.7362 C   0  0  0  0  0  0  0  0  0  0  0  0
   15.2721   -7.6205   19.6627 C   0  0  0  0  0  0  0  0  0  0  0  0
   12.6882   -5.8721   21.5735 F   0  0  0  0  0  0  0  0  0  0  0  0
   17.3814  -10.2938   12.7777 O   0  0  0  0  0  0  0  0  0  0  0  0
   18.1357   -9.2288   12.2137 C   0  0  0  0  0  0  0  0  0  0  0  0
   17.6834   -9.2080    8.0210 N   0  0  0  0  0  0  0  0  0  0  0  0
   17.6657   -9.1000    6.6945 N   0  0  0  0  0  0  0  0  0  0  0  0
   18.6544   -8.2929    6.2375 C   0  0  0  0  0  0  0  0  0  0  0  0
   19.6058   -7.6680    7.4960 S   0  0  0  0  0  0  0  0  0  0  0  0
   18.6665   -8.4985    8.6158 C   0  0  0  0  0  0  0  0  0  0  0  0
   18.8310   -8.4990    9.9612 N   0  0  0  0  0  0  0  0  0  0  0  0
   17.9842   -9.2380   10.7345 C   0  0  0  0  0  0  0  0  0  0  0  0
   16.9460   -9.9788   10.1440 C   0  0  0  0  0  0  0  0  0  0  0  0
   16.8102   -9.9527    8.7515 C   0  0  0  0  0  0  0  0  0  0  0  0
   15.8919  -10.6092    8.1910 O   0  0  0  0  0  0  0  0  0  0  0  0
   18.8642   -7.9940    4.7965 C   0  0  0  0  0  0  0  0  0  0  0  0
 20 21  1  0  0  0
 21 22  2  0  0  0
 22 23  1  0  0  0
 23 24  1  0  0  0
 24 25  2  0  0  0
 25 26  1  0  0  0
 26 19  1  0  0  0
 19 18  1  0  0  0
 18  1  1  0  0  0
  1  2  2  0  0  0
  2  3  1  0  0  0
  3  4  2  0  0  0
  4  5  1  0  0  0
  5  6  2  0  0  0
  5  7  1  0  0  0
  7  8  1  0  0  0
  8  9  2  0  0  0
  8 11  1  0  0  0
 11 12  2  0  0  0
 12 13  1  0  0  0
 13 14  2  0  0  0
 14 15  1  0  0  0
 15 16  2  0  0  0
 14 17  1  0  0  0
 26 27  2  0  0  0
 27 28  1  0  0  0
 28 29  2  0  0  0
 22 30  1  0  0  0
 24 20  1  0  0  0
  6  1  1  0  0  0
 16 11  1  0  0  0
 28 20  1  0  0  0
  7 10  1  0  0  0
M  END
>  <minimizedAffinity>
-8.42364

>  <minimizedRMSD>
1.06434

$$$$
ChemDiv-G756-0361 MCULE-4087837092 MolPort-010-744-634 PubChem-50802125 ZINC000033268549 ZINC33268549


 33 36  0  0  0  0  0  0  0  0999 V2000
   18.4423  -12.6041   14.0162 C   0  0  0  0  0  0  0  0  0  0  0  0
   17.9054  -11.6028   14.9803 C   0  0  0  0  0  0  0  0  0  0  0  0
   17.8388  -11.9884   16.3227 C   0  0  0  0  0  0  0  0  0  0  0  0
   17.3585  -11.1089   17.2933 C   0  0  0  0  0  0  0  0  0  0  0  0
   16.9386   -9.8275   16.9364 C   0  0  0  0  0  0  0  0  0  0  0  0
   17.0016   -9.4361   15.5929 C   0  0  0  0  0  0  0  0  0  0  0  0
   17.4772  -10.3027   14.6020 C   0  0  0  0  0  0  0  0  0  0  0  0
   16.4475   -8.9520   17.9601 N   0  0  0  0  0  0  0  0  0  0  0  0
   15.4691   -7.9160   17.8057 C   0  0  0  0  0  0  0  0  0  0  0  0
   14.9515   -7.6663   16.6849 O   0  0  0  0  0  0  0  0  0  0  0  0
   16.8211   -9.0752   18.8626 H   0  0  0  0  0  0  0  0  0  0  0  0
   15.0346   -7.1395   19.0009 C   0  0  0  0  0  0  0  0  0  0  0  0
   13.7522   -6.5624   18.7745 O   0  0  0  0  0  0  0  0  0  0  0  0
   12.5896   -7.3201   18.5944 C   0  0  0  0  0  0  0  0  0  0  0  0
   12.3023   -8.4343   19.4003 C   0  0  0  0  0  0  0  0  0  0  0  0
   11.1317   -9.1698   19.1950 C   0  0  0  0  0  0  0  0  0  0  0  0
   10.2409   -8.7963   18.1851 C   0  0  0  0  0  0  0  0  0  0  0  0
    8.7757   -9.7179   17.9263 Cl  0  0  0  0  0  0  0  0  0  0  0  0
   10.5197   -7.6869   17.3820 C   0  0  0  0  0  0  0  0  0  0  0  0
   11.6906   -6.9511   17.5877 C   0  0  0  0  0  0  0  0  0  0  0  0
   17.4945   -9.8064   13.2885 O   0  0  0  0  0  0  0  0  0  0  0  0
   18.6410   -9.7187   12.4545 C   0  0  0  0  0  0  0  0  0  0  0  0
   18.2201   -9.4434   11.0558 C   0  0  0  0  0  0  0  0  0  0  0  0
   17.0146   -9.9495   10.5792 C   0  0  0  0  0  0  0  0  0  0  0  0
   16.6315   -9.6537    9.2720 C   0  0  0  0  0  0  0  0  0  0  0  0
   15.5407  -10.1148    8.8365 O   0  0  0  0  0  0  0  0  0  0  0  0
   17.4318   -8.8733    8.4811 N   0  0  0  0  0  0  0  0  0  0  0  0
   17.0560   -8.5854    7.1991 C   0  0  0  0  0  0  0  0  0  0  0  0
   17.8591   -7.7897    6.3799 C   0  0  0  0  0  0  0  0  0  0  0  0
   19.0575   -7.2855    6.8811 C   0  0  0  0  0  0  0  0  0  0  0  0
   19.4405   -7.5791    8.1886 C   0  0  0  0  0  0  0  0  0  0  0  0
   18.6154   -8.3785    8.9833 C   0  0  0  0  0  0  0  0  0  0  0  0
   18.9911   -8.6643   10.2567 N   0  0  0  0  0  0  0  0  0  0  0  0
  1  2  1  0  0  0
  2  3  2  0  0  0
  3  4  1  0  0  0
  4  5  2  0  0  0
  5  8  1  0  0  0
  5  6  1  0  0  0
  8  9  1  0  0  0
  9 10  2  0  0  0
  9 12  1  0  0  0
 12 13  1  0  0  0
 13 14  1  0  0  0
 14 15  2  0  0  0
 15 16  1  0  0  0
 16 17  2  0  0  0
 17 18  1  0  0  0
 17 19  1  0  0  0
 19 20  2  0  0  0
 20 14  1  0  0  0
  6  7  2  0  0  0
  7 21  1  0  0  0
  7  2  1  0  0  0
 21 22  1  0  0  0
 22 23  1  0  0  0
 23 24  2  0  0  0
 24 25  1  0  0  0
 25 26  2  0  0  0
 25 27  1  0  0  0
 27 28  1  0  0  0
 28 29  2  0  0  0
 29 30  1  0  0  0
 30 31  2  0  0  0
 31 32  1  0  0  0
 32 33  2  0  0  0
 32 27  1  0  0  0
 33 23  1  0  0  0
  8 11  1  0  0  0
M  END
>  <minimizedAffinity>
-8.41771

>  <minimizedRMSD>
1.11027

$$$$
ChemDiv-C679-6223 MCULE-2807145449 MolPort-007-656-235 PubChem-20874386 ZINC000013368489 ZINC13368489


 32 35  0  0  0  0  0  0  0  0999 V2000
   17.3794  -10.1264   14.2483 C   0  0  0  0  0  0  0  0  0  0  0  0
   17.9610  -11.3647   14.5608 C   0  0  0  0  0  0  0  0  0  0  0  0
   17.9890  -11.8143   15.8830 C   0  0  0  0  0  0  0  0  0  0  0  0
   17.4389  -11.0293   16.8998 C   0  0  0  0  0  0  0  0  0  0  0  0
   16.8595   -9.7916   16.6027 C   0  0  0  0  0  0  0  0  0  0  0  0
   16.8327   -9.3473   15.2724 C   0  0  0  0  0  0  0  0  0  0  0  0
   16.3051   -9.0157   17.6723 N   0  0  0  0  0  0  0  0  0  0  0  0
   15.2670   -8.0322   17.5719 C   0  0  0  0  0  0  0  0  0  0  0  0
   14.7528   -7.7355   16.4611 O   0  0  0  0  0  0  0  0  0  0  0  0
   16.6760   -9.1747   18.5703 H   0  0  0  0  0  0  0  0  0  0  0  0
   14.8206   -7.3138   18.7980 C   0  0  0  0  0  0  0  0  0  0  0  0
   15.8733   -7.2760   19.7567 O   0  0  0  0  0  0  0  0  0  0  0  0
   15.6648   -7.0151   21.1173 C   0  0  0  0  0  0  0  0  0  0  0  0
   16.7375   -6.5682   21.9011 C   0  0  0  0  0  0  0  0  0  0  0  0
   17.9642   -6.3980   21.3476 F   0  0  0  0  0  0  0  0  0  0  0  0
   16.5521   -6.3010   23.2617 C   0  0  0  0  0  0  0  0  0  0  0  0
   15.2937   -6.4732   23.8459 C   0  0  0  0  0  0  0  0  0  0  0  0
   14.2185   -6.9144   23.0712 C   0  0  0  0  0  0  0  0  0  0  0  0
   14.4022   -7.1831   21.7116 C   0  0  0  0  0  0  0  0  0  0  0  0
   17.3345   -9.6461   12.9371 O   0  0  0  0  0  0  0  0  0  0  0  0
   18.4980   -9.2453   12.2261 C   0  0  0  0  0  0  0  0  0  0  0  0
   18.9072   -7.7633    5.0847 C   0  0  0  0  0  0  0  0  0  0  0  0
   18.6362   -8.1883    6.4835 C   0  0  0  0  0  0  0  0  0  0  0  0
   19.4243   -7.8588    7.5922 C   0  0  0  0  0  0  0  0  0  0  0  0
   18.7304   -8.4987    8.6019 C   0  0  0  0  0  0  0  0  0  0  0  0
   19.0275   -8.5281    9.9243 N   0  0  0  0  0  0  0  0  0  0  0  0
   18.2072   -9.2235   10.7680 C   0  0  0  0  0  0  0  0  0  0  0  0
   17.0650   -9.8861   10.2725 C   0  0  0  0  0  0  0  0  0  0  0  0
   16.8001   -9.8265    8.8984 C   0  0  0  0  0  0  0  0  0  0  0  0
   15.7950  -10.4028    8.4068 O   0  0  0  0  0  0  0  0  0  0  0  0
   17.6563   -9.1273    8.1161 N   0  0  0  0  0  0  0  0  0  0  0  0
   17.6077   -8.9337    6.8382 O   0  0  0  0  0  0  0  0  0  0  0  0
 22 23  1  0  0  0
 23 24  2  0  0  0
 24 25  1  0  0  0
 25 26  2  0  0  0
 26 27  1  0  0  0
 27 21  1  0  0  0
 27 28  2  0  0  0
 21 20  1  0  0  0
 20  1  1  0  0  0
  1  2  2  0  0  0
  2  3  1  0  0  0
  3  4  2  0  0  0
  4  5  1  0  0  0
  5  7  1  0  0  0
  5  6  2  0  0  0
  7  8  1  0  0  0
  8  9  2  0  0  0
  8 11  1  0  0  0
 11 12  1  0  0  0
 12 13  1  0  0  0
 13 14  2  0  0  0
 14 15  1  0  0  0
 14 16  1  0  0  0
 16 17  2  0  0  0
 17 18  1  0  0  0
 18 19  2  0  0  0
 19 13  1  0  0  0
  6  1  1  0  0  0
 28 29  1  0  0  0
 29 30  2  0  0  0
 29 31  1  0  0  0
 31 32  1  0  0  0
 31 25  1  0  0  0
 32 23  1  0  0  0
  7 10  1  0  0  0
M  END
>  <minimizedAffinity>
-8.41399

>  <minimizedRMSD>
1.57891

$$$$
ChemDiv-C679-5588 CHEMBL1733951 MCULE-2913188413 MolPort-007-656-138 PubChem-16009578 ZINC000008603804


 30 33  0  0  0  0  0  0  0  0999 V2000
   17.4114  -10.3459   14.2471 C   0  0  0  0  0  0  0  0  0  0  0  0
   18.0987  -11.5202   14.5938 C   0  0  0  0  0  0  0  0  0  0  0  0
   18.1610  -11.9307   15.9276 C   0  0  0  0  0  0  0  0  0  0  0  0
   17.5383  -11.1713   16.9220 C   0  0  0  0  0  0  0  0  0  0  0  0
   16.8533   -9.9971   16.5921 C   0  0  0  0  0  0  0  0  0  0  0  0
   16.7926   -9.5916   15.2497 C   0  0  0  0  0  0  0  0  0  0  0  0
   16.2212   -9.2498   17.6402 N   0  0  0  0  0  0  0  0  0  0  0  0
   15.3588   -8.1118   17.4868 C   0  0  0  0  0  0  0  0  0  0  0  0
   15.1484   -7.6158   16.3466 O   0  0  0  0  0  0  0  0  0  0  0  0
   16.3969   -9.5484   18.5618 H   0  0  0  0  0  0  0  0  0  0  0  0
   14.7249   -7.5103   18.6736 C   0  0  0  0  0  0  0  0  0  0  0  0
   15.3419   -7.6028   19.9299 C   0  0  0  0  0  0  0  0  0  0  0  0
   14.7402   -7.0350   21.0569 C   0  0  0  0  0  0  0  0  0  0  0  0
   13.5181   -6.3688   20.9359 C   0  0  0  0  0  0  0  0  0  0  0  0
   12.8979   -6.2694   19.6880 C   0  0  0  0  0  0  0  0  0  0  0  0
   11.7137   -5.6227   19.5705 F   0  0  0  0  0  0  0  0  0  0  0  0
   13.4990   -6.8379   18.5609 C   0  0  0  0  0  0  0  0  0  0  0  0
   17.3265   -9.9104   12.9220 O   0  0  0  0  0  0  0  0  0  0  0  0
   18.4055   -9.2661   12.2573 C   0  0  0  0  0  0  0  0  0  0  0  0
   17.6722   -9.1683    8.1036 N   0  0  0  0  0  0  0  0  0  0  0  0
   17.5961   -9.0293    6.7533 C   0  0  0  0  0  0  0  0  0  0  0  0
   18.6334   -8.2597    6.2310 C   0  0  0  0  0  0  0  0  0  0  0  0
   19.6588   -7.7443    7.4740 S   0  0  0  0  0  0  0  0  0  0  0  0
   18.7366   -8.5285    8.6370 C   0  0  0  0  0  0  0  0  0  0  0  0
   18.9878   -8.5522    9.9689 N   0  0  0  0  0  0  0  0  0  0  0  0
   18.1502   -9.2425   10.7930 C   0  0  0  0  0  0  0  0  0  0  0  0
   17.0303   -9.9072   10.2701 C   0  0  0  0  0  0  0  0  0  0  0  0
   16.8036   -9.8603    8.8907 C   0  0  0  0  0  0  0  0  0  0  0  0
   15.8090  -10.4538    8.3944 O   0  0  0  0  0  0  0  0  0  0  0  0
   18.8117   -7.9332    4.7926 C   0  0  0  0  0  0  0  0  0  0  0  0
 20 21  1  0  0  0
 21 22  2  0  0  0
 22 23  1  0  0  0
 23 24  1  0  0  0
 24 25  2  0  0  0
 25 26  1  0  0  0
 26 19  1  0  0  0
 19 18  1  0  0  0
 18  1  1  0  0  0
  1  2  2  0  0  0
  2  3  1  0  0  0
  3  4  2  0  0  0
  4  5  1  0  0  0
  5  6  2  0  0  0
  5  7  1  0  0  0
  7  8  1  0  0  0
  8  9  2  0  0  0
  8 11  1  0  0  0
 11 12  2  0  0  0
 12 13  1  0  0  0
 13 14  2  0  0  0
 14 15  1  0  0  0
 15 16  1  0  0  0
 15 17  2  0  0  0
 26 27  2  0  0  0
 27 28  1  0  0  0
 28 29  2  0  0  0
 22 30  1  0  0  0
 24 20  1  0  0  0
  6  1  1  0  0  0
 17 11  1  0  0  0
 28 20  1  0  0  0
  7 10  1  0  0  0
M  END
>  <minimizedAffinity>
-8.39290

>  <minimizedRMSD>
1.01875

$$$$
ChemDiv-C679-5560 CHEMBL1454084 MCULE-1799933737 MolPort-007-656-133 PubChem-16009572 ZINC000008603797


 30 33  0  0  0  0  0  0  0  0999 V2000
   17.4617  -10.6350   14.1765 C   0  0  0  0  0  0  0  0  0  0  0  0
   18.2538  -11.7111   14.6068 C   0  0  0  0  0  0  0  0  0  0  0  0
   18.3184  -12.0382   15.9633 C   0  0  0  0  0  0  0  0  0  0  0  0
   17.5930  -11.2930   16.8967 C   0  0  0  0  0  0  0  0  0  0  0  0
   16.7997  -10.2182   16.4824 C   0  0  0  0  0  0  0  0  0  0  0  0
   16.7395   -9.8953   15.1182 C   0  0  0  0  0  0  0  0  0  0  0  0
   16.0705   -9.4782   17.4711 N   0  0  0  0  0  0  0  0  0  0  0  0
   15.4090   -8.2167   17.2891 C   0  0  0  0  0  0  0  0  0  0  0  0
   15.4283   -7.6371   16.1690 O   0  0  0  0  0  0  0  0  0  0  0  0
   16.0179   -9.8772   18.3695 H   0  0  0  0  0  0  0  0  0  0  0  0
   14.7011   -7.5938   18.4214 C   0  0  0  0  0  0  0  0  0  0  0  0
   13.4696   -6.9511   18.2233 C   0  0  0  0  0  0  0  0  0  0  0  0
   12.7991   -6.3604   19.2985 C   0  0  0  0  0  0  0  0  0  0  0  0
   13.3549   -6.4080   20.5797 C   0  0  0  0  0  0  0  0  0  0  0  0
   14.5809   -7.0461   20.7860 C   0  0  0  0  0  0  0  0  0  0  0  0
   15.1723   -7.0969   22.1482 C   0  0  0  0  0  0  0  0  0  0  0  0
   15.2514   -7.6367   19.7109 C   0  0  0  0  0  0  0  0  0  0  0  0
   17.3749  -10.2813   12.8278 O   0  0  0  0  0  0  0  0  0  0  0  0
   18.1629   -9.2471   12.2531 C   0  0  0  0  0  0  0  0  0  0  0  0
   17.6536   -9.2102    8.0647 N   0  0  0  0  0  0  0  0  0  0  0  0
   17.6399   -9.0755    6.7116 C   0  0  0  0  0  0  0  0  0  0  0  0
   18.6674   -8.2614    6.2403 C   0  0  0  0  0  0  0  0  0  0  0  0
   19.6053   -7.7016    7.5327 S   0  0  0  0  0  0  0  0  0  0  0  0
   18.6611   -8.5241    8.6495 C   0  0  0  0  0  0  0  0  0  0  0  0
   18.8422   -8.5312    9.9929 N   0  0  0  0  0  0  0  0  0  0  0  0
   17.9927   -9.2530   10.7763 C   0  0  0  0  0  0  0  0  0  0  0  0
   16.9321   -9.9686   10.1992 C   0  0  0  0  0  0  0  0  0  0  0  0
   16.7765   -9.9374    8.8092 C   0  0  0  0  0  0  0  0  0  0  0  0
   15.8351  -10.5743    8.2648 O   0  0  0  0  0  0  0  0  0  0  0  0
   18.9057   -7.9309    4.8114 C   0  0  0  0  0  0  0  0  0  0  0  0
 20 21  1  0  0  0
 21 22  2  0  0  0
 22 23  1  0  0  0
 23 24  1  0  0  0
 24 25  2  0  0  0
 25 26  1  0  0  0
 26 19  1  0  0  0
 19 18  1  0  0  0
 18  1  1  0  0  0
  1  2  2  0  0  0
  2  3  1  0  0  0
  3  4  2  0  0  0
  4  5  1  0  0  0
  5  6  2  0  0  0
  5  7  1  0  0  0
  7  8  1  0  0  0
  8  9  2  0  0  0
  8 11  1  0  0  0
 11 12  2  0  0  0
 12 13  1  0  0  0
 13 14  2  0  0  0
 14 15  1  0  0  0
 15 16  1  0  0  0
 15 17  2  0  0  0
 26 27  2  0  0  0
 27 28  1  0  0  0
 28 29  2  0  0  0
 22 30  1  0  0  0
 24 20  1  0  0  0
  6  1  1  0  0  0
 17 11  1  0  0  0
 28 20  1  0  0  0
  7 10  1  0  0  0
M  END
>  <minimizedAffinity>
-8.39158

>  <minimizedRMSD>
0.99415

$$$$
ChemDiv-C679-4217 MCULE-6881762433 MolPort-007-655-825 PubChem-46258335 ZINC000020859183 ZINC20859183


 35 38  0  0  0  0  0  0  0  0999 V2000
   16.9375  -10.2587   15.9636 C   0  0  0  0  0  0  0  0  0  0  0  0
   16.8669   -9.8215   14.6321 C   0  0  0  0  0  0  0  0  0  0  0  0
   17.5729  -10.4853   13.6240 C   0  0  0  0  0  0  0  0  0  0  0  0
   18.3591  -11.6006   13.9537 C   0  0  0  0  0  0  0  0  0  0  0  0
   18.4339  -12.0414   15.2771 C   0  0  0  0  0  0  0  0  0  0  0  0
   17.7247  -11.3714   16.2776 C   0  0  0  0  0  0  0  0  0  0  0  0
   15.6066   -8.3036   16.9621 C   0  0  0  0  0  0  0  0  0  0  0  0
   15.6535   -7.6152   15.9063 O   0  0  0  0  0  0  0  0  0  0  0  0
   16.2250   -9.5984   17.0186 N   0  0  0  0  0  0  0  0  0  0  0  0
   16.1521  -10.0842   17.8718 H   0  0  0  0  0  0  0  0  0  0  0  0
   13.5786   -6.7627   20.4132 C   0  0  0  0  0  0  0  0  0  0  0  0
   12.9735   -6.6798   19.1500 C   0  0  0  0  0  0  0  0  0  0  0  0
   13.6447   -7.1870   18.0252 C   0  0  0  0  0  0  0  0  0  0  0  0
   14.9107   -7.7746   18.1484 C   0  0  0  0  0  0  0  0  0  0  0  0
   15.5070   -7.8531   19.4126 C   0  0  0  0  0  0  0  0  0  0  0  0
   14.8472   -7.3516   20.5362 C   0  0  0  0  0  0  0  0  0  0  0  0
   13.5663   -5.9103   22.7379 C   0  0  0  0  0  0  0  0  0  0  0  0
   12.9037   -6.2553   21.5289 O   0  0  0  0  0  0  0  0  0  0  0  0
   11.7092   -6.0916   19.0349 O   0  0  0  0  0  0  0  0  0  0  0  0
   11.5176   -4.7669   18.5575 C   0  0  0  0  0  0  0  0  0  0  0  0
   17.4762  -10.0184   12.3108 O   0  0  0  0  0  0  0  0  0  0  0  0
   18.3328   -9.0111   11.7891 C   0  0  0  0  0  0  0  0  0  0  0  0
   18.2413   -8.9986   10.3054 C   0  0  0  0  0  0  0  0  0  0  0  0
   17.2503   -9.7572    9.6610 C   0  0  0  0  0  0  0  0  0  0  0  0
   17.1670   -9.7077    8.2650 C   0  0  0  0  0  0  0  0  0  0  0  0
   16.2918  -10.3792    7.6570 O   0  0  0  0  0  0  0  0  0  0  0  0
   18.0433   -8.9234    7.5833 N   0  0  0  0  0  0  0  0  0  0  0  0
   18.0689   -8.7868    6.2597 N   0  0  0  0  0  0  0  0  0  0  0  0
   19.0440   -7.9389    5.8515 C   0  0  0  0  0  0  0  0  0  0  0  0
   19.9299   -7.3138    7.1640 S   0  0  0  0  0  0  0  0  0  0  0  0
   18.9806   -8.1986    8.2294 C   0  0  0  0  0  0  0  0  0  0  0  0
   19.0930   -8.2196    9.5799 N   0  0  0  0  0  0  0  0  0  0  0  0
   19.2823   -7.6142    4.4139 C   0  0  0  0  0  0  0  0  0  0  0  0
   20.7570   -7.7256    4.0793 C   0  0  0  0  0  0  0  0  0  0  0  0
   18.4773   -8.5354    3.5182 C   0  0  0  0  0  0  0  0  0  0  0  0
 17 18  1  0  0  0
 18 11  1  0  0  0
 11 12  2  0  0  0
 12 19  1  0  0  0
 19 20  1  0  0  0
 12 13  1  0  0  0
 13 14  2  0  0  0
 14 15  1  0  0  0
 15 16  2  0  0  0
 14  7  1  0  0  0
  7  8  2  0  0  0
  7  9  1  0  0  0
  9  1  1  0  0  0
  1  2  2  0  0  0
  2  3  1  0  0  0
  3 21  1  0  0  0
 21 22  1  0  0  0
 22 23  1  0  0  0
 23 24  2  0  0  0
 24 25  1  0  0  0
 25 26  2  0  0  0
 25 27  1  0  0  0
 27 28  1  0  0  0
 28 29  2  0  0  0
 29 30  1  0  0  0
 30 31  1  0  0  0
 31 32  2  0  0  0
 29 33  1  0  0  0
 33 34  1  0  0  0
 33 35  1  0  0  0
  3  4  2  0  0  0
  4  5  1  0  0  0
  5  6  2  0  0  0
 16 11  1  0  0  0
  6  1  1  0  0  0
 32 23  1  0  0  0
 31 27  1  0  0  0
  9 10  1  0  0  0
M  END
>  <minimizedAffinity>
-8.39110

>  <minimizedRMSD>
1.63579

$$$$
ChemDiv-L861-0105 MCULE-9629338417 MolPort-010-885-909 PubChem-53128362 ZINC000065100168 ZINC65100168


 38 41  0  0  0  0  0  0  0  0999 V2000
   19.6792   -7.5991    5.5381 C   0  0  0  0  0  0  0  0  0  0  0  0
   19.3640   -7.3813    6.8929 C   0  0  0  0  0  0  0  0  0  0  0  0
   18.3982   -8.1532    7.4478 N   0  0  0  0  0  0  0  0  0  0  0  0
   17.8787   -8.1946    8.6816 C   0  0  0  0  0  0  0  0  0  0  0  0
   18.2371   -7.4551    9.6378 O   0  0  0  0  0  0  0  0  0  0  0  0
   16.9227   -9.1426    8.7577 N   0  0  0  0  0  0  0  0  0  0  0  0
   16.8211   -9.7359    7.5718 N   0  0  0  0  0  0  0  0  0  0  0  0
   17.7272   -9.1127    6.7879 C   0  0  0  0  0  0  0  0  0  0  0  0
   17.9899   -9.3790    5.4489 C   0  0  0  0  0  0  0  0  0  0  0  0
   18.9823   -8.6032    4.8261 C   0  0  0  0  0  0  0  0  0  0  0  0
   21.7019   -7.4453    4.0533 N   0  0  0  0  0  0  0  0  0  0  0  0
   20.7156   -6.7940    4.8686 C   0  0  0  0  0  0  0  0  0  0  0  0
   20.7269   -5.5409    5.0133 O   0  0  0  0  0  0  0  0  0  0  0  0
   21.6276   -8.4236    3.9719 H   0  0  0  0  0  0  0  0  0  0  0  0
   24.9395   -5.6846    1.9438 C   0  0  0  0  0  0  0  0  0  0  0  0
   24.8877   -7.0651    2.1595 C   0  0  0  0  0  0  0  0  0  0  0  0
   23.8160   -7.6315    2.8561 C   0  0  0  0  0  0  0  0  0  0  0  0
   22.7831   -6.8251    3.3449 C   0  0  0  0  0  0  0  0  0  0  0  0
   22.8350   -5.4393    3.1317 C   0  0  0  0  0  0  0  0  0  0  0  0
   23.9050   -4.8721    2.4347 C   0  0  0  0  0  0  0  0  0  0  0  0
   26.4936   -3.8245    1.4492 C   0  0  0  0  0  0  0  0  0  0  0  0
   26.0237   -5.1494    1.2425 O   0  0  0  0  0  0  0  0  0  0  0  0
   16.1566   -9.5264    9.9336 C   0  0  0  0  0  0  0  0  0  0  0  0
   17.0671   -9.7203   11.0959 C   0  0  0  0  0  0  0  0  0  0  0  0
   18.3061   -9.8394   10.9008 O   0  0  0  0  0  0  0  0  0  0  0  0
   16.5140   -9.7704   12.4170 N   0  0  0  0  0  0  0  0  0  0  0  0
   15.5319   -9.7621   12.4864 H   0  0  0  0  0  0  0  0  0  0  0  0
   17.2464   -9.8315   13.6473 C   0  0  0  0  0  0  0  0  0  0  0  0
   16.6245   -9.3968   14.8224 C   0  0  0  0  0  0  0  0  0  0  0  0
   17.3082   -9.4203   16.0478 C   0  0  0  0  0  0  0  0  0  0  0  0
   18.6289   -9.8805   16.0856 C   0  0  0  0  0  0  0  0  0  0  0  0
   19.2599  -10.3134   14.9165 C   0  0  0  0  0  0  0  0  0  0  0  0
   18.5713  -10.2893   13.7008 C   0  0  0  0  0  0  0  0  0  0  0  0
   16.6891   -8.9948   17.2696 N   0  0  0  0  0  0  0  0  0  0  0  0
   15.5864   -8.0886   17.3999 C   0  0  0  0  0  0  0  0  0  0  0  0
   15.0233   -7.8165   18.7479 C   0  0  0  0  0  0  0  0  0  0  0  0
   15.0911   -7.5106   16.3964 O   0  0  0  0  0  0  0  0  0  0  0  0
   17.0595   -9.3630   18.1042 H   0  0  0  0  0  0  0  0  0  0  0  0
 21 22  1  0  0  0
 22 15  1  0  0  0
 15 16  2  0  0  0
 16 17  1  0  0  0
 17 18  2  0  0  0
 18 11  1  0  0  0
 18 19  1  0  0  0
 11 12  1  0  0  0
 12 13  2  0  0  0
 12  1  1  0  0  0
  1  2  2  0  0  0
  2  3  1  0  0  0
  3  4  1  0  0  0
  4  5  2  0  0  0
  4  6  1  0  0  0
  6 23  1  0  0  0
  6  7  1  0  0  0
 23 24  1  0  0  0
 24 25  2  0  0  0
 24 26  1  0  0  0
 26 28  1  0  0  0
 28 29  2  0  0  0
 29 30  1  0  0  0
 30 34  1  0  0  0
 30 31  2  0  0  0
 34 35  1  0  0  0
 35 36  1  0  0  0
 35 37  2  0  0  0
 31 32  1  0  0  0
 32 33  2  0  0  0
 33 28  1  0  0  0
  7  8  2  0  0  0
  8  9  1  0  0  0
  8  3  1  0  0  0
  9 10  2  0  0  0
 10  1  1  0  0  0
 19 20  2  0  0  0
 20 15  1  0  0  0
 11 14  1  0  0  0
 26 27  1  0  0  0
 34 38  1  0  0  0
M  END
>  <minimizedAffinity>
-8.38316

>  <minimizedRMSD>
1.78760

$$$$
ChemDiv-G357-1305 CHEMBL4095709 MCULE-6424616040 MolPort-007-847-485 PubChem-46343391 ZINC000021016907


 37 42  0  0  0  0  0  0  0  0999 V2000
   16.3836   -9.4691   16.1490 C   0  0  0  0  0  0  0  0  0  0  0  0
   15.3734   -8.5702   15.7836 C   0  0  0  0  0  0  0  0  0  0  0  0
   14.8016   -7.7255   16.7388 C   0  0  0  0  0  0  0  0  0  0  0  0
   15.2325   -7.7688   18.0729 C   0  0  0  0  0  0  0  0  0  0  0  0
   16.2399   -8.6678   18.4369 C   0  0  0  0  0  0  0  0  0  0  0  0
   16.8135   -9.5123   17.4824 C   0  0  0  0  0  0  0  0  0  0  0  0
   14.6673   -6.9220   19.0826 N   0  0  0  0  0  0  0  0  0  0  0  0
   13.4557   -7.1435   19.8201 C   0  0  0  0  0  0  0  0  0  0  0  0
   12.7376   -8.1490   19.5644 O   0  0  0  0  0  0  0  0  0  0  0  0
   15.1644   -6.0987   19.2930 H   0  0  0  0  0  0  0  0  0  0  0  0
   13.0095   -6.1819   20.8645 C   0  0  0  0  0  0  0  0  0  0  0  0
   12.0141   -5.2563   20.5108 C   0  0  0  0  0  0  0  0  0  0  0  0
   11.5438   -4.3112   21.4224 C   0  0  0  0  0  0  0  0  0  0  0  0
   12.0588   -4.2719   22.7159 C   0  0  0  0  0  0  0  0  0  0  0  0
   13.0426   -5.1802   23.1052 C   0  0  0  0  0  0  0  0  0  0  0  0
   13.5384   -5.1320   24.4112 C   0  0  0  0  0  0  0  0  0  0  0  0
   14.5121   -6.0416   24.8268 C   0  0  0  0  0  0  0  0  0  0  0  0
   14.9926   -7.0046   23.9384 C   0  0  0  0  0  0  0  0  0  0  0  0
   14.5034   -7.0576   22.6310 C   0  0  0  0  0  0  0  0  0  0  0  0
   13.5292   -6.1486   22.1872 C   0  0  0  0  0  0  0  0  0  0  0  0
   16.9814  -10.3579   15.1399 C   0  0  0  0  0  0  0  0  0  0  0  0
   17.4007  -11.5009   15.4727 O   0  0  0  0  0  0  0  0  0  0  0  0
   17.0808   -9.9304   13.8140 O   0  0  0  0  0  0  0  0  0  0  0  0
   18.2044  -10.2454   13.0051 C   0  0  0  0  0  0  0  0  0  0  0  0
   17.3846   -9.1211    9.0250 N   0  0  0  0  0  0  0  0  0  0  0  0
   16.4347   -9.8251    9.6955 C   0  0  0  0  0  0  0  0  0  0  0  0
   15.3411  -10.1219    9.1455 O   0  0  0  0  0  0  0  0  0  0  0  0
   16.6901  -10.2166   11.0142 C   0  0  0  0  0  0  0  0  0  0  0  0
   17.9220   -9.8713   11.5944 C   0  0  0  0  0  0  0  0  0  0  0  0
   18.8401   -9.1548   10.8861 N   0  0  0  0  0  0  0  0  0  0  0  0
   18.5566   -8.7964    9.6101 C   0  0  0  0  0  0  0  0  0  0  0  0
   19.5471   -7.9178    8.5773 S   0  0  0  0  0  0  0  0  0  0  0  0
   18.3676   -8.0141    7.3574 C   0  0  0  0  0  0  0  0  0  0  0  0
   17.2643   -8.6848    7.7735 N   0  0  0  0  0  0  0  0  0  0  0  0
   18.4820   -7.3697    6.0151 C   0  0  0  0  0  0  0  0  0  0  0  0
   19.9436   -7.2574    5.6229 C   0  0  0  0  0  0  0  0  0  0  0  0
   19.0845   -8.3458    5.0212 C   0  0  0  0  0  0  0  0  0  0  0  0
 25 26  1  0  0  0
 26 27  2  0  0  0
 26 28  1  0  0  0
 28 29  2  0  0  0
 29 30  1  0  0  0
 30 31  2  0  0  0
 31 32  1  0  0  0
 32 33  1  0  0  0
 33 35  1  0  0  0
 35 36  1  0  0  0
 36 37  1  0  0  0
 33 34  2  0  0  0
 29 24  1  0  0  0
 24 23  1  0  0  0
 23 21  1  0  0  0
 21 22  2  0  0  0
 21  1  1  0  0  0
  1  2  2  0  0  0
  2  3  1  0  0  0
  3  4  2  0  0  0
  4  5  1  0  0  0
  5  6  2  0  0  0
  4  7  1  0  0  0
  7  8  1  0  0  0
  8  9  2  0  0  0
  8 11  1  0  0  0
 11 12  2  0  0  0
 12 13  1  0  0  0
 13 14  2  0  0  0
 14 15  1  0  0  0
 15 16  2  0  0  0
 16 17  1  0  0  0
 17 18  2  0  0  0
 18 19  1  0  0  0
 19 20  2  0  0  0
 31 25  1  0  0  0
 37 35  1  0  0  0
  6  1  1  0  0  0
 20 11  1  0  0  0
 34 25  1  0  0  0
 20 15  1  0  0  0
  7 10  1  0  0  0
M  END
>  <minimizedAffinity>
-8.37314

>  <minimizedRMSD>
2.29880

$$$$
ChemDiv-C679-5359 MCULE-1469515189 MolPort-010-797-208 PubChem-52098561 ZINC000041085709 ZINC41085709


 28 31  0  0  0  0  0  0  0  0999 V2000
   16.7944   -9.4103   14.0615 C   0  0  0  0  0  0  0  0  0  0  0  0
   18.1003   -9.9249   14.0835 C   0  0  0  0  0  0  0  0  0  0  0  0
   18.7821  -10.0605   15.2952 C   0  0  0  0  0  0  0  0  0  0  0  0
   18.1642   -9.6832   16.4904 C   0  0  0  0  0  0  0  0  0  0  0  0
   16.8635   -9.1690   16.4835 C   0  0  0  0  0  0  0  0  0  0  0  0
   16.1845   -9.0356   15.2628 C   0  0  0  0  0  0  0  0  0  0  0  0
   16.2640   -8.7932   17.7309 N   0  0  0  0  0  0  0  0  0  0  0  0
   15.1384   -7.9227   17.9161 C   0  0  0  0  0  0  0  0  0  0  0  0
   14.5605   -7.3929   16.9294 O   0  0  0  0  0  0  0  0  0  0  0  0
   16.6668   -9.1721   18.5454 H   0  0  0  0  0  0  0  0  0  0  0  0
   14.6537   -7.6456   19.2728 C   0  0  0  0  0  0  0  0  0  0  0  0
   15.4482   -7.3812   20.3776 C   0  0  0  0  0  0  0  0  0  0  0  0
   14.7003   -7.1543   21.5421 C   0  0  0  0  0  0  0  0  0  0  0  0
   13.3207   -7.2373   21.3668 C   0  0  0  0  0  0  0  0  0  0  0  0
   13.0457   -7.5960   19.7464 S   0  0  0  0  0  0  0  0  0  0  0  0
   16.0846   -9.2616   12.8675 O   0  0  0  0  0  0  0  0  0  0  0  0
   16.0144  -10.2852   11.8835 C   0  0  0  0  0  0  0  0  0  0  0  0
   18.4416   -8.5876    5.9130 C   0  0  0  0  0  0  0  0  0  0  0  0
   18.6942   -8.3857    7.3698 C   0  0  0  0  0  0  0  0  0  0  0  0
   19.7589   -7.5940    7.8104 C   0  0  0  0  0  0  0  0  0  0  0  0
   19.7270   -7.5990    9.5027 S   0  0  0  0  0  0  0  0  0  0  0  0
   18.3843   -8.5914    9.5882 C   0  0  0  0  0  0  0  0  0  0  0  0
   17.7858   -9.0197   10.7264 N   0  0  0  0  0  0  0  0  0  0  0  0
   16.6970   -9.8317   10.6432 C   0  0  0  0  0  0  0  0  0  0  0  0
   16.1915  -10.2073    9.3914 C   0  0  0  0  0  0  0  0  0  0  0  0
   16.8336   -9.7466    8.2372 C   0  0  0  0  0  0  0  0  0  0  0  0
   16.3901  -10.0813    7.1066 O   0  0  0  0  0  0  0  0  0  0  0  0
   17.9310   -8.9390    8.3633 N   0  0  0  0  0  0  0  0  0  0  0  0
 18 19  1  0  0  0
 19 20  2  0  0  0
 20 21  1  0  0  0
 21 22  1  0  0  0
 22 23  2  0  0  0
 23 24  1  0  0  0
 24 17  1  0  0  0
 24 25  2  0  0  0
 17 16  1  0  0  0
 16  1  1  0  0  0
  1  2  2  0  0  0
  2  3  1  0  0  0
  3  4  2  0  0  0
  4  5  1  0  0  0
  5  7  1  0  0  0
  5  6  2  0  0  0
  7  8  1  0  0  0
  8  9  2  0  0  0
  8 11  1  0  0  0
 11 12  2  0  0  0
 12 13  1  0  0  0
 13 14  2  0  0  0
 14 15  1  0  0  0
 15 11  1  0  0  0
  6  1  1  0  0  0
 25 26  1  0  0  0
 26 27  2  0  0  0
 26 28  1  0  0  0
 28 19  1  0  0  0
 28 22  1  0  0  0
  7 10  1  0  0  0
M  END
>  <minimizedAffinity>
-8.36511

>  <minimizedRMSD>
1.42268

$$$$
ChemDiv-C679-4014 MCULE-9854811756 MolPort-007-655-744 PubChem-46258302 ZINC000013367836


 30 33  0  0  0  0  0  0  0  0999 V2000
   17.1872  -10.5929   14.2948 C   0  0  0  0  0  0  0  0  0  0  0  0
   18.0943  -11.6037   14.6498 C   0  0  0  0  0  0  0  0  0  0  0  0
   18.3563  -11.8720   15.9953 C   0  0  0  0  0  0  0  0  0  0  0  0
   17.7145  -11.1333   16.9928 C   0  0  0  0  0  0  0  0  0  0  0  0
   16.8081  -10.1234   16.6539 C   0  0  0  0  0  0  0  0  0  0  0  0
   16.5498   -9.8592   15.3002 C   0  0  0  0  0  0  0  0  0  0  0  0
   16.1705   -9.3877   17.7071 N   0  0  0  0  0  0  0  0  0  0  0  0
   15.4444   -8.1540   17.5834 C   0  0  0  0  0  0  0  0  0  0  0  0
   15.3155   -7.6077   16.4550 O   0  0  0  0  0  0  0  0  0  0  0  0
   16.2375   -9.7692   18.6122 H   0  0  0  0  0  0  0  0  0  0  0  0
   14.8512   -7.5350   18.7970 C   0  0  0  0  0  0  0  0  0  0  0  0
   15.6404   -7.4746   19.9574 C   0  0  0  0  0  0  0  0  0  0  0  0
   15.1498   -6.9072   21.1346 C   0  0  0  0  0  0  0  0  0  0  0  0
   13.8565   -6.3886   21.1710 C   0  0  0  0  0  0  0  0  0  0  0  0
   13.0548   -6.4379   20.0302 C   0  0  0  0  0  0  0  0  0  0  0  0
   13.5353   -7.0041   18.8445 C   0  0  0  0  0  0  0  0  0  0  0  0
   12.6125   -7.0163   17.6726 C   0  0  0  0  0  0  0  0  0  0  0  0
   16.9024  -10.2986   12.9591 O   0  0  0  0  0  0  0  0  0  0  0  0
   17.1353   -9.0174   12.3887 C   0  0  0  0  0  0  0  0  0  0  0  0
   17.5647   -9.3472    8.2071 N   0  0  0  0  0  0  0  0  0  0  0  0
   17.7959   -9.3221    6.8967 N   0  0  0  0  0  0  0  0  0  0  0  0
   18.6719   -8.3471    6.5548 C   0  0  0  0  0  0  0  0  0  0  0  0
   19.2016   -7.4607    7.9010 S   0  0  0  0  0  0  0  0  0  0  0  0
   18.2430   -8.4098    8.9022 C   0  0  0  0  0  0  0  0  0  0  0  0
   18.1225   -8.2935   10.2471 N   0  0  0  0  0  0  0  0  0  0  0  0
   17.3003   -9.1497   10.9172 C   0  0  0  0  0  0  0  0  0  0  0  0
   16.5754  -10.1298   10.2191 C   0  0  0  0  0  0  0  0  0  0  0  0
   16.7270  -10.2171    8.8309 C   0  0  0  0  0  0  0  0  0  0  0  0
   16.0941  -11.0875    8.1764 O   0  0  0  0  0  0  0  0  0  0  0  0
   19.1080   -8.0952    5.1568 C   0  0  0  0  0  0  0  0  0  0  0  0
 20 21  1  0  0  0
 21 22  2  0  0  0
 22 23  1  0  0  0
 23 24  1  0  0  0
 24 25  2  0  0  0
 25 26  1  0  0  0
 26 19  1  0  0  0
 19 18  1  0  0  0
 18  1  1  0  0  0
  1  2  2  0  0  0
  2  3  1  0  0  0
  3  4  2  0  0  0
  4  5  1  0  0  0
  5  6  2  0  0  0
  5  7  1  0  0  0
  7  8  1  0  0  0
  8  9  2  0  0  0
  8 11  1  0  0  0
 11 12  2  0  0  0
 12 13  1  0  0  0
 13 14  2  0  0  0
 14 15  1  0  0  0
 15 16  2  0  0  0
 16 17  1  0  0  0
 26 27  2  0  0  0
 27 28  1  0  0  0
 28 29  2  0  0  0
 22 30  1  0  0  0
 24 20  1  0  0  0
  6  1  1  0  0  0
 16 11  1  0  0  0
 28 20  1  0  0  0
  7 10  1  0  0  0
M  END
>  <minimizedAffinity>
-8.35695

>  <minimizedRMSD>
1.15373

$$$$
ChemDiv-C679-4550 MCULE-4326957747 MolPort-007-655-922 PubChem-20874284 ZINC000013368196 ZINC13368196


 35 38  0  0  0  0  0  0  0  0999 V2000
   17.4860  -10.6813   14.3091 C   0  0  0  0  0  0  0  0  0  0  0  0
   18.1870  -11.8074   14.7681 C   0  0  0  0  0  0  0  0  0  0  0  0
   18.2308  -12.0999   16.1334 C   0  0  0  0  0  0  0  0  0  0  0  0
   17.5772  -11.2692   17.0472 C   0  0  0  0  0  0  0  0  0  0  0  0
   16.8734  -10.1458   16.6041 C   0  0  0  0  0  0  0  0  0  0  0  0
   16.8321   -9.8583   15.2310 C   0  0  0  0  0  0  0  0  0  0  0  0
   16.2219   -9.3144   17.5727 N   0  0  0  0  0  0  0  0  0  0  0  0
   15.4873   -8.1118   17.3132 C   0  0  0  0  0  0  0  0  0  0  0  0
   15.2739   -7.7185   16.1365 O   0  0  0  0  0  0  0  0  0  0  0  0
   16.2856   -9.5987   18.5130 H   0  0  0  0  0  0  0  0  0  0  0  0
   14.9286   -7.3350   18.4554 C   0  0  0  0  0  0  0  0  0  0  0  0
   15.2031   -7.9985   19.6853 O   0  0  0  0  0  0  0  0  0  0  0  0
   15.2886   -7.3349   20.9167 C   0  0  0  0  0  0  0  0  0  0  0  0
   14.1439   -7.2156   21.7227 C   0  0  0  0  0  0  0  0  0  0  0  0
   12.8427   -7.7980   21.2944 C   0  0  0  0  0  0  0  0  0  0  0  0
   14.2169   -6.5475   22.9491 C   0  0  0  0  0  0  0  0  0  0  0  0
   15.4258   -5.9951   23.3804 C   0  0  0  0  0  0  0  0  0  0  0  0
   16.5677   -6.1093   22.5854 C   0  0  0  0  0  0  0  0  0  0  0  0
   16.4999   -6.7759   21.3592 C   0  0  0  0  0  0  0  0  0  0  0  0
   17.4289  -10.3565   12.9515 O   0  0  0  0  0  0  0  0  0  0  0  0
   18.2989   -9.4030   12.3557 C   0  0  0  0  0  0  0  0  0  0  0  0
   18.4748   -8.2791    6.3902 C   0  0  0  0  0  0  0  0  0  0  0  0
   17.4629   -9.0294    6.8910 N   0  0  0  0  0  0  0  0  0  0  0  0
   17.5608   -9.1842    8.2091 N   0  0  0  0  0  0  0  0  0  0  0  0
   18.6268   -8.5635    8.7570 C   0  0  0  0  0  0  0  0  0  0  0  0
   19.5441   -7.7613    7.6015 S   0  0  0  0  0  0  0  0  0  0  0  0
   18.8799   -8.6221   10.0874 N   0  0  0  0  0  0  0  0  0  0  0  0
   18.0339   -9.3248   10.8946 C   0  0  0  0  0  0  0  0  0  0  0  0
   16.9170   -9.9806   10.3521 C   0  0  0  0  0  0  0  0  0  0  0  0
   16.6922   -9.8983    8.9732 C   0  0  0  0  0  0  0  0  0  0  0  0
   15.7036  -10.4833    8.4547 O   0  0  0  0  0  0  0  0  0  0  0  0
   18.6136   -7.9314    4.9461 C   0  0  0  0  0  0  0  0  0  0  0  0
   20.5236   -6.4999    4.2920 C   0  0  0  0  0  0  0  0  0  0  0  0
   20.0742   -7.9274    4.5238 C   0  0  0  0  0  0  0  0  0  0  0  0
   20.2485   -8.7160    3.2398 C   0  0  0  0  0  0  0  0  0  0  0  0
 33 34  1  0  0  0
 34 35  1  0  0  0
 34 32  1  0  0  0
 32 22  1  0  0  0
 22 23  2  0  0  0
 23 24  1  0  0  0
 24 25  1  0  0  0
 25 26  1  0  0  0
 25 27  2  0  0  0
 26 22  1  0  0  0
 27 28  1  0  0  0
 28 21  1  0  0  0
 28 29  2  0  0  0
 21 20  1  0  0  0
 20  1  1  0  0  0
  1  2  2  0  0  0
  2  3  1  0  0  0
  3  4  2  0  0  0
  4  5  1  0  0  0
  5  7  1  0  0  0
  5  6  2  0  0  0
  7  8  1  0  0  0
  8  9  2  0  0  0
  8 11  1  0  0  0
 11 12  1  0  0  0
 12 13  1  0  0  0
 13 14  2  0  0  0
 14 15  1  0  0  0
 14 16  1  0  0  0
 16 17  2  0  0  0
 17 18  1  0  0  0
 18 19  2  0  0  0
 19 13  1  0  0  0
  6  1  1  0  0  0
 29 30  1  0  0  0
 30 31  2  0  0  0
 30 24  1  0  0  0
  7 10  1  0  0  0
M  END
>  <minimizedAffinity>
-8.35595

>  <minimizedRMSD>
2.00841

$$$$
ChemDiv-C679-4892 MCULE-9471181263 MolPort-007-656-004 PubChem-46258426 ZINC000013368310 ZINC13368310


 33 37  0  0  0  0  0  0  0  0999 V2000
   16.9999   -8.8958   16.6058 C   0  0  0  0  0  0  0  0  0  0  0  0
   16.4124   -8.8336   15.3331 C   0  0  0  0  0  0  0  0  0  0  0  0
   17.1263   -9.2267   14.1967 C   0  0  0  0  0  0  0  0  0  0  0  0
   18.4449   -9.6876   14.3367 C   0  0  0  0  0  0  0  0  0  0  0  0
   19.0356   -9.7530   15.6008 C   0  0  0  0  0  0  0  0  0  0  0  0
   18.3137   -9.3590   16.7307 C   0  0  0  0  0  0  0  0  0  0  0  0
   15.0538   -7.7765   17.8536 C   0  0  0  0  0  0  0  0  0  0  0  0
   14.4986   -7.3761   16.7952 O   0  0  0  0  0  0  0  0  0  0  0  0
   16.2907   -8.5046   17.7895 N   0  0  0  0  0  0  0  0  0  0  0  0
   16.6945   -8.7624   18.6496 H   0  0  0  0  0  0  0  0  0  0  0  0
   13.2274   -6.7807   19.3161 C   0  0  0  0  0  0  0  0  0  0  0  0
   14.4418   -7.4958   19.1747 C   0  0  0  0  0  0  0  0  0  0  0  0
   15.0961   -7.9599   20.3270 C   0  0  0  0  0  0  0  0  0  0  0  0
   14.5668   -7.7273   21.5971 C   0  0  0  0  0  0  0  0  0  0  0  0
   13.3713   -7.0243   21.7346 C   0  0  0  0  0  0  0  0  0  0  0  0
   12.7064   -6.5543   20.6019 C   0  0  0  0  0  0  0  0  0  0  0  0
   11.5904   -5.2572   18.2436 C   0  0  0  0  0  0  0  0  0  0  0  0
   12.5522   -6.3026   18.1861 O   0  0  0  0  0  0  0  0  0  0  0  0
   16.5042   -9.1507   12.9483 O   0  0  0  0  0  0  0  0  0  0  0  0
   16.4179  -10.2602   12.0638 C   0  0  0  0  0  0  0  0  0  0  0  0
   16.8375   -9.8426   10.7000 C   0  0  0  0  0  0  0  0  0  0  0  0
   16.2351  -10.4294    9.5749 C   0  0  0  0  0  0  0  0  0  0  0  0
   16.6249   -9.9986    8.3019 C   0  0  0  0  0  0  0  0  0  0  0  0
   16.1077  -10.5087    7.2730 O   0  0  0  0  0  0  0  0  0  0  0  0
   17.5660   -9.0230    8.2000 N   0  0  0  0  0  0  0  0  0  0  0  0
   18.0222   -8.5250    7.0531 N   0  0  0  0  0  0  0  0  0  0  0  0
   18.9476   -7.5524    7.2499 C   0  0  0  0  0  0  0  0  0  0  0  0
   19.2517   -7.2935    8.9015 S   0  0  0  0  0  0  0  0  0  0  0  0
   18.1226   -8.4712    9.2985 C   0  0  0  0  0  0  0  0  0  0  0  0
   17.7724   -8.8619   10.5481 N   0  0  0  0  0  0  0  0  0  0  0  0
   19.6631   -6.8569    6.1385 C   0  0  0  0  0  0  0  0  0  0  0  0
   19.5386   -7.6698    4.8629 C   0  0  0  0  0  0  0  0  0  0  0  0
   20.8252   -7.7060    5.6560 C   0  0  0  0  0  0  0  0  0  0  0  0
 17 18  1  0  0  0
 18 11  1  0  0  0
 11 12  2  0  0  0
 12 13  1  0  0  0
 12  7  1  0  0  0
 13 14  2  0  0  0
 14 15  1  0  0  0
 15 16  2  0  0  0
 16 11  1  0  0  0
  7  8  2  0  0  0
  7  9  1  0  0  0
  9  1  1  0  0  0
  1  2  2  0  0  0
  2  3  1  0  0  0
  3 19  1  0  0  0
  3  4  2  0  0  0
 19 20  1  0  0  0
 20 21  1  0  0  0
 21 22  2  0  0  0
 22 23  1  0  0  0
 23 24  2  0  0  0
 23 25  1  0  0  0
 25 26  1  0  0  0
 26 27  2  0  0  0
 27 28  1  0  0  0
 27 31  1  0  0  0
 28 29  1  0  0  0
 29 30  2  0  0  0
 29 25  1  0  0  0
 30 21  1  0  0  0
 31 32  1  0  0  0
 32 33  1  0  0  0
 33 31  1  0  0  0
  4  5  1  0  0  0
  5  6  2  0  0  0
  6  1  1  0  0  0
  9 10  1  0  0  0
M  END
>  <minimizedAffinity>
-8.33804

>  <minimizedRMSD>
1.65384

$$$$
ChemDiv-D439-4144 MCULE-1706679415 MolPort-007-706-776 PubChem-46268358 ZINC000021797121 ZINC21797121


 36 39  0  0  0  0  0  0  0  0999 V2000
   17.3536  -10.0577   14.2810 C   0  0  0  0  0  0  0  0  0  0  0  0
   16.7458   -9.3740   15.3403 C   0  0  0  0  0  0  0  0  0  0  0  0
   16.8053   -9.8615   16.6525 C   0  0  0  0  0  0  0  0  0  0  0  0
   17.4804  -11.0562   16.9058 C   0  0  0  0  0  0  0  0  0  0  0  0
   18.0841  -11.7593   15.8628 C   0  0  0  0  0  0  0  0  0  0  0  0
   18.0287  -11.2764   14.5517 C   0  0  0  0  0  0  0  0  0  0  0  0
   18.6650  -12.1114   13.4938 C   0  0  0  0  0  0  0  0  0  0  0  0
   16.1980   -9.1654   17.7493 N   0  0  0  0  0  0  0  0  0  0  0  0
   15.3015   -8.0500   17.6652 C   0  0  0  0  0  0  0  0  0  0  0  0
   14.9290   -7.5912   16.5524 O   0  0  0  0  0  0  0  0  0  0  0  0
   16.4197   -9.4866   18.6531 H   0  0  0  0  0  0  0  0  0  0  0  0
   14.7710   -7.4484   18.9201 C   0  0  0  0  0  0  0  0  0  0  0  0
   13.4219   -7.8526   19.1233 O   0  0  0  0  0  0  0  0  0  0  0  0
   12.3453   -6.9766   19.3534 C   0  0  0  0  0  0  0  0  0  0  0  0
   11.0612   -7.3900   18.9508 C   0  0  0  0  0  0  0  0  0  0  0  0
   10.8560   -8.7128   18.2960 C   0  0  0  0  0  0  0  0  0  0  0  0
    9.9552   -6.5585   19.1443 C   0  0  0  0  0  0  0  0  0  0  0  0
   10.1091   -5.3132   19.7514 C   0  0  0  0  0  0  0  0  0  0  0  0
   11.3711   -4.8971   20.1742 C   0  0  0  0  0  0  0  0  0  0  0  0
   12.4902   -5.7137   19.9856 C   0  0  0  0  0  0  0  0  0  0  0  0
   13.7885   -5.2252   20.5301 C   0  0  0  0  0  0  0  0  0  0  0  0
   17.2378   -9.4802   13.0067 O   0  0  0  0  0  0  0  0  0  0  0  0
   16.4505   -9.9969   11.9433 C   0  0  0  0  0  0  0  0  0  0  0  0
   18.8060   -8.2841    7.2861 N   0  0  0  0  0  0  0  0  0  0  0  0
   19.7264   -7.4716    7.8631 C   0  0  0  0  0  0  0  0  0  0  0  0
   19.6194   -7.4879    9.2203 N   0  0  0  0  0  0  0  0  0  0  0  0
   18.5977   -8.3454    9.4108 C   0  0  0  0  0  0  0  0  0  0  0  0
   18.0859   -8.7109   10.6116 N   0  0  0  0  0  0  0  0  0  0  0  0
   17.0442   -9.5945   10.6410 C   0  0  0  0  0  0  0  0  0  0  0  0
   16.5087  -10.1093    9.4439 C   0  0  0  0  0  0  0  0  0  0  0  0
   17.0694   -9.7039    8.2267 C   0  0  0  0  0  0  0  0  0  0  0  0
   16.6197  -10.1437    7.1363 O   0  0  0  0  0  0  0  0  0  0  0  0
   18.1066   -8.8246    8.2665 N   0  0  0  0  0  0  0  0  0  0  0  0
   17.5322   -7.6260    5.3001 C   0  0  0  0  0  0  0  0  0  0  0  0
   18.6185   -8.5278    5.8576 C   0  0  0  0  0  0  0  0  0  0  0  0
   19.9170   -8.3059    5.1045 C   0  0  0  0  0  0  0  0  0  0  0  0
 34 35  1  0  0  0
 35 36  1  0  0  0
 35 24  1  0  0  0
 24 25  1  0  0  0
 25 26  2  0  0  0
 26 27  1  0  0  0
 27 28  2  0  0  0
 28 29  1  0  0  0
 29 23  1  0  0  0
 29 30  2  0  0  0
 23 22  1  0  0  0
 22  1  1  0  0  0
  1  2  2  0  0  0
  2  3  1  0  0  0
  3  8  1  0  0  0
  3  4  2  0  0  0
  8  9  1  0  0  0
  9 10  2  0  0  0
  9 12  1  0  0  0
 12 13  1  0  0  0
 13 14  1  0  0  0
 14 15  2  0  0  0
 15 16  1  0  0  0
 15 17  1  0  0  0
 17 18  2  0  0  0
 18 19  1  0  0  0
 19 20  2  0  0  0
 20 21  1  0  0  0
 20 14  1  0  0  0
  4  5  1  0  0  0
  5  6  2  0  0  0
  6  7  1  0  0  0
  6  1  1  0  0  0
 30 31  1  0  0  0
 31 32  2  0  0  0
 31 33  1  0  0  0
 33 24  1  0  0  0
 33 27  1  0  0  0
  8 11  1  0  0  0
M  END
>  <minimizedAffinity>
-8.33722

>  <minimizedRMSD>
1.74149

$$$$
ChemDiv-C679-4399 MCULE-1599654193 MolPort-007-655-874 PubChem-46258358 ZINC000013368112


 31 34  0  0  0  0  0  0  0  0999 V2000
   16.7643   -9.2238   14.9504 C   0  0  0  0  0  0  0  0  0  0  0  0
   17.5536  -10.0856   15.7289 C   0  0  0  0  0  0  0  0  0  0  0  0
   17.4196  -10.0978   17.1189 C   0  0  0  0  0  0  0  0  0  0  0  0
   16.4948   -9.2530   17.7386 C   0  0  0  0  0  0  0  0  0  0  0  0
   15.6969   -8.3950   16.9755 C   0  0  0  0  0  0  0  0  0  0  0  0
   15.8407   -8.3835   15.5797 C   0  0  0  0  0  0  0  0  0  0  0  0
   14.7596   -7.5439   17.6485 N   0  0  0  0  0  0  0  0  0  0  0  0
   14.5124   -7.4842   19.0619 C   0  0  0  0  0  0  0  0  0  0  0  0
   15.1800   -8.1963   19.8608 O   0  0  0  0  0  0  0  0  0  0  0  0
   14.2301   -6.9369   17.0825 H   0  0  0  0  0  0  0  0  0  0  0  0
   13.4741   -6.5786   19.5838 C   0  0  0  0  0  0  0  0  0  0  0  0
   13.2567   -6.4703   20.9654 C   0  0  0  0  0  0  0  0  0  0  0  0
   12.2787   -5.6025   21.4611 C   0  0  0  0  0  0  0  0  0  0  0  0
   11.5098   -4.8379   20.5790 C   0  0  0  0  0  0  0  0  0  0  0  0
   11.7179   -4.9412   19.2009 C   0  0  0  0  0  0  0  0  0  0  0  0
   10.9674   -4.2060   18.3444 F   0  0  0  0  0  0  0  0  0  0  0  0
   12.6965   -5.8078   18.7051 C   0  0  0  0  0  0  0  0  0  0  0  0
   16.8777   -9.1808   13.5583 O   0  0  0  0  0  0  0  0  0  0  0  0
   17.8299   -9.9559   12.8427 C   0  0  0  0  0  0  0  0  0  0  0  0
   17.4305   -9.1643    8.7200 N   0  0  0  0  0  0  0  0  0  0  0  0
   17.4401   -8.8294    7.4322 N   0  0  0  0  0  0  0  0  0  0  0  0
   18.5412   -8.1122    7.1023 C   0  0  0  0  0  0  0  0  0  0  0  0
   19.5574   -7.8501    8.4367 S   0  0  0  0  0  0  0  0  0  0  0  0
   18.5004   -8.7181    9.4117 C   0  0  0  0  0  0  0  0  0  0  0  0
   18.6475   -8.9663   10.7364 N   0  0  0  0  0  0  0  0  0  0  0  0
   17.6944   -9.6927   11.3854 C   0  0  0  0  0  0  0  0  0  0  0  0
   16.5672  -10.1651   10.6924 C   0  0  0  0  0  0  0  0  0  0  0  0
   16.4511   -9.8854    9.3265 C   0  0  0  0  0  0  0  0  0  0  0  0
   15.4540  -10.2977    8.6765 O   0  0  0  0  0  0  0  0  0  0  0  0
   18.7895   -7.5748    5.7385 C   0  0  0  0  0  0  0  0  0  0  0  0
   20.2747   -7.3525    5.5334 C   0  0  0  0  0  0  0  0  0  0  0  0
 20 21  1  0  0  0
 21 22  2  0  0  0
 22 23  1  0  0  0
 23 24  1  0  0  0
 24 25  2  0  0  0
 25 26  1  0  0  0
 26 19  1  0  0  0
 19 18  1  0  0  0
 18  1  1  0  0  0
  1  2  2  0  0  0
  2  3  1  0  0  0
  3  4  2  0  0  0
  4  5  1  0  0  0
  5  6  2  0  0  0
  5  7  1  0  0  0
  7  8  1  0  0  0
  8  9  2  0  0  0
  8 11  1  0  0  0
 11 12  2  0  0  0
 12 13  1  0  0  0
 13 14  2  0  0  0
 14 15  1  0  0  0
 15 16  1  0  0  0
 15 17  2  0  0  0
 26 27  2  0  0  0
 27 28  1  0  0  0
 28 29  2  0  0  0
 22 30  1  0  0  0
 30 31  1  0  0  0
 24 20  1  0  0  0
  6  1  1  0  0  0
 17 11  1  0  0  0
 28 20  1  0  0  0
  7 10  1  0  0  0
M  END
>  <minimizedAffinity>
-8.33319

>  <minimizedRMSD>
1.57828

$$$$
ChemDiv-C679-5585 MCULE-2993541222 MolPort-010-797-265 PubChem-52096645 ZINC000041077414


 30 33  0  0  0  0  0  0  0  0999 V2000
   17.4584  -10.6313   14.1798 C   0  0  0  0  0  0  0  0  0  0  0  0
   18.2430  -11.7154   14.6037 C   0  0  0  0  0  0  0  0  0  0  0  0
   18.3111  -12.0462   15.9591 C   0  0  0  0  0  0  0  0  0  0  0  0
   17.5969  -11.2969   16.8977 C   0  0  0  0  0  0  0  0  0  0  0  0
   16.8111  -10.2141   16.4897 C   0  0  0  0  0  0  0  0  0  0  0  0
   16.7474   -9.8875   15.1265 C   0  0  0  0  0  0  0  0  0  0  0  0
   16.0936   -9.4699   17.4835 N   0  0  0  0  0  0  0  0  0  0  0  0
   15.4183   -8.2158   17.3005 C   0  0  0  0  0  0  0  0  0  0  0  0
   15.4114   -7.6486   16.1740 O   0  0  0  0  0  0  0  0  0  0  0  0
   16.0604   -9.8600   18.3868 H   0  0  0  0  0  0  0  0  0  0  0  0
   14.7267   -7.5864   18.4393 C   0  0  0  0  0  0  0  0  0  0  0  0
   13.4881   -6.9528   18.2570 C   0  0  0  0  0  0  0  0  0  0  0  0
   12.8332   -6.3560   19.3383 C   0  0  0  0  0  0  0  0  0  0  0  0
   13.4117   -6.3881   20.6099 C   0  0  0  0  0  0  0  0  0  0  0  0
   14.6450   -7.0170   20.8001 C   0  0  0  0  0  0  0  0  0  0  0  0
   15.3701   -7.0579   22.3923 Cl  0  0  0  0  0  0  0  0  0  0  0  0
   15.2999   -7.6139   19.7190 C   0  0  0  0  0  0  0  0  0  0  0  0
   17.3683  -10.2736   12.8323 O   0  0  0  0  0  0  0  0  0  0  0  0
   18.1638   -9.2462   12.2558 C   0  0  0  0  0  0  0  0  0  0  0  0
   17.6524   -9.2107    8.0676 N   0  0  0  0  0  0  0  0  0  0  0  0
   17.6378   -9.0763    6.7145 C   0  0  0  0  0  0  0  0  0  0  0  0
   18.6656   -8.2630    6.2423 C   0  0  0  0  0  0  0  0  0  0  0  0
   19.6048   -7.7035    7.5340 S   0  0  0  0  0  0  0  0  0  0  0  0
   18.6606   -8.5252    8.6516 C   0  0  0  0  0  0  0  0  0  0  0  0
   18.8425   -8.5321    9.9948 N   0  0  0  0  0  0  0  0  0  0  0  0
   17.9930   -9.2531   10.7790 C   0  0  0  0  0  0  0  0  0  0  0  0
   16.9317   -9.9682   10.2027 C   0  0  0  0  0  0  0  0  0  0  0  0
   16.7753   -9.9373    8.8128 C   0  0  0  0  0  0  0  0  0  0  0  0
   15.8336  -10.5743    8.2691 O   0  0  0  0  0  0  0  0  0  0  0  0
   18.9031   -7.9330    4.8133 C   0  0  0  0  0  0  0  0  0  0  0  0
 20 21  1  0  0  0
 21 22  2  0  0  0
 22 23  1  0  0  0
 23 24  1  0  0  0
 24 25  2  0  0  0
 25 26  1  0  0  0
 26 19  1  0  0  0
 19 18  1  0  0  0
 18  1  1  0  0  0
  1  2  2  0  0  0
  2  3  1  0  0  0
  3  4  2  0  0  0
  4  5  1  0  0  0
  5  6  2  0  0  0
  5  7  1  0  0  0
  7  8  1  0  0  0
  8  9  2  0  0  0
  8 11  1  0  0  0
 11 12  2  0  0  0
 12 13  1  0  0  0
 13 14  2  0  0  0
 14 15  1  0  0  0
 15 16  1  0  0  0
 15 17  2  0  0  0
 26 27  2  0  0  0
 27 28  1  0  0  0
 28 29  2  0  0  0
 22 30  1  0  0  0
 24 20  1  0  0  0
  6  1  1  0  0  0
 17 11  1  0  0  0
 28 20  1  0  0  0
  7 10  1  0  0  0
M  END
>  <minimizedAffinity>
-8.31657

>  <minimizedRMSD>
0.99709

$$$$
ChemDiv-D439-4139 MCULE-6688038491 MolPort-007-706-772 PubChem-46268354 ZINC000021797102 ZINC21797102


 35 38  0  0  0  0  0  0  0  0999 V2000
   17.3693   -9.9968   14.3281 C   0  0  0  0  0  0  0  0  0  0  0  0
   16.7877   -9.2478   15.3572 C   0  0  0  0  0  0  0  0  0  0  0  0
   16.8201   -9.6860   16.6875 C   0  0  0  0  0  0  0  0  0  0  0  0
   17.4417  -10.8977   16.9912 C   0  0  0  0  0  0  0  0  0  0  0  0
   18.0285  -11.6609   15.9814 C   0  0  0  0  0  0  0  0  0  0  0  0
   18.0022  -11.2265   14.6521 C   0  0  0  0  0  0  0  0  0  0  0  0
   18.6535  -12.1067   13.6413 C   0  0  0  0  0  0  0  0  0  0  0  0
   16.2232   -8.9300   17.7497 N   0  0  0  0  0  0  0  0  0  0  0  0
   15.1889   -7.9452   17.6222 C   0  0  0  0  0  0  0  0  0  0  0  0
   14.7429   -7.6073   16.4939 O   0  0  0  0  0  0  0  0  0  0  0  0
   16.5576   -9.1049   18.6591 H   0  0  0  0  0  0  0  0  0  0  0  0
   14.6552   -7.2856   18.8430 C   0  0  0  0  0  0  0  0  0  0  0  0
   15.4280   -7.6752   19.9712 O   0  0  0  0  0  0  0  0  0  0  0  0
   15.3127   -7.0514   21.2160 C   0  0  0  0  0  0  0  0  0  0  0  0
   16.4765   -6.6664   21.8899 C   0  0  0  0  0  0  0  0  0  0  0  0
   16.3956   -6.0387   23.1367 C   0  0  0  0  0  0  0  0  0  0  0  0
   17.6373   -5.6341   23.8458 C   0  0  0  0  0  0  0  0  0  0  0  0
   15.1479   -5.7928   23.7166 C   0  0  0  0  0  0  0  0  0  0  0  0
   13.9803   -6.1750   23.0501 C   0  0  0  0  0  0  0  0  0  0  0  0
   14.0611   -6.8026   21.8034 C   0  0  0  0  0  0  0  0  0  0  0  0
   17.2775   -9.4616   13.0330 O   0  0  0  0  0  0  0  0  0  0  0  0
   16.4690   -9.9728   11.9830 C   0  0  0  0  0  0  0  0  0  0  0  0
   18.7906   -8.3015    7.2949 N   0  0  0  0  0  0  0  0  0  0  0  0
   19.7192   -7.4894    7.8594 C   0  0  0  0  0  0  0  0  0  0  0  0
   19.6225   -7.4966    9.2175 N   0  0  0  0  0  0  0  0  0  0  0  0
   18.5986   -8.3483    9.4212 C   0  0  0  0  0  0  0  0  0  0  0  0
   18.0973   -8.7062   10.6286 N   0  0  0  0  0  0  0  0  0  0  0  0
   17.0566   -9.5900   10.6724 C   0  0  0  0  0  0  0  0  0  0  0  0
   16.5052  -10.1072    9.4827 C   0  0  0  0  0  0  0  0  0  0  0  0
   17.0562   -9.7092    8.2582 C   0  0  0  0  0  0  0  0  0  0  0  0
   16.5948  -10.1537    7.1741 O   0  0  0  0  0  0  0  0  0  0  0  0
   18.0959   -8.8329    8.2840 N   0  0  0  0  0  0  0  0  0  0  0  0
   17.5381   -7.6045    5.3104 C   0  0  0  0  0  0  0  0  0  0  0  0
   18.5871   -8.5476    5.8693 C   0  0  0  0  0  0  0  0  0  0  0  0
   19.8905   -8.3836    5.1097 C   0  0  0  0  0  0  0  0  0  0  0  0
 33 34  1  0  0  0
 34 35  1  0  0  0
 34 23  1  0  0  0
 23 24  1  0  0  0
 24 25  2  0  0  0
 25 26  1  0  0  0
 26 27  2  0  0  0
 27 28  1  0  0  0
 28 22  1  0  0  0
 28 29  2  0  0  0
 22 21  1  0  0  0
 21  1  1  0  0  0
  1  2  2  0  0  0
  2  3  1  0  0  0
  3  8  1  0  0  0
  3  4  2  0  0  0
  8  9  1  0  0  0
  9 10  2  0  0  0
  9 12  1  0  0  0
 12 13  1  0  0  0
 13 14  1  0  0  0
 14 15  2  0  0  0
 15 16  1  0  0  0
 16 17  1  0  0  0
 16 18  2  0  0  0
 18 19  1  0  0  0
 19 20  2  0  0  0
 20 14  1  0  0  0
  4  5  1  0  0  0
  5  6  2  0  0  0
  6  7  1  0  0  0
  6  1  1  0  0  0
 29 30  1  0  0  0
 30 31  2  0  0  0
 30 32  1  0  0  0
 32 23  1  0  0  0
 32 26  1  0  0  0
  8 11  1  0  0  0
M  END
>  <minimizedAffinity>
-8.31278

>  <minimizedRMSD>
1.49340

$$$$
ChemDiv-C679-5591 MolPort-010-797-268 PubChem-53043767 ZINC000064775692


 31 34  0  0  0  0  0  0  0  0999 V2000
   17.3691  -10.1622   14.2433 C   0  0  0  0  0  0  0  0  0  0  0  0
   17.9676  -11.3934   14.5540 C   0  0  0  0  0  0  0  0  0  0  0  0
   18.0151  -11.8378   15.8774 C   0  0  0  0  0  0  0  0  0  0  0  0
   17.4657  -11.0557   16.8969 C   0  0  0  0  0  0  0  0  0  0  0  0
   16.8651   -9.8274   16.6018 C   0  0  0  0  0  0  0  0  0  0  0  0
   16.8217   -9.3868   15.2702 C   0  0  0  0  0  0  0  0  0  0  0  0
   16.3193   -9.0505   17.6765 N   0  0  0  0  0  0  0  0  0  0  0  0
   15.3214   -8.0231   17.5745 C   0  0  0  0  0  0  0  0  0  0  0  0
   14.7964   -7.7375   16.4664 O   0  0  0  0  0  0  0  0  0  0  0  0
   16.6649   -9.2415   18.5783 H   0  0  0  0  0  0  0  0  0  0  0  0
   14.8942   -7.2881   18.7676 C   0  0  0  0  0  0  0  0  0  0  0  0
   14.8384   -7.8664   19.9646 C   0  0  0  0  0  0  0  0  0  0  0  0
   14.4155   -7.1495   21.1751 C   0  0  0  0  0  0  0  0  0  0  0  0
   13.1783   -6.4887   21.2496 C   0  0  0  0  0  0  0  0  0  0  0  0
   12.8095   -5.8146   22.4174 C   0  0  0  0  0  0  0  0  0  0  0  0
   13.6734   -5.7972   23.5160 C   0  0  0  0  0  0  0  0  0  0  0  0
   14.9059   -6.4534   23.4467 C   0  0  0  0  0  0  0  0  0  0  0  0
   15.2751   -7.1273   22.2786 C   0  0  0  0  0  0  0  0  0  0  0  0
   17.3072   -9.6874   12.9309 O   0  0  0  0  0  0  0  0  0  0  0  0
   18.4469   -9.1959   12.2376 C   0  0  0  0  0  0  0  0  0  0  0  0
   18.7682   -7.9664    4.7511 C   0  0  0  0  0  0  0  0  0  0  0  0
   18.6100   -8.2792    6.1948 C   0  0  0  0  0  0  0  0  0  0  0  0
   17.5816   -9.0460    6.7383 C   0  0  0  0  0  0  0  0  0  0  0  0
   17.6754   -9.1704    8.0893 N   0  0  0  0  0  0  0  0  0  0  0  0
   18.7441   -8.5214    8.6025 C   0  0  0  0  0  0  0  0  0  0  0  0
   19.6489   -7.7478    7.4199 S   0  0  0  0  0  0  0  0  0  0  0  0
   19.0103   -8.5265    9.9316 N   0  0  0  0  0  0  0  0  0  0  0  0
   18.1826   -9.2052   10.7746 C   0  0  0  0  0  0  0  0  0  0  0  0
   17.0594   -9.8806   10.2730 C   0  0  0  0  0  0  0  0  0  0  0  0
   16.8179   -9.8543    8.8952 C   0  0  0  0  0  0  0  0  0  0  0  0
   15.8191  -10.4563    8.4178 O   0  0  0  0  0  0  0  0  0  0  0  0
 21 22  1  0  0  0
 22 23  2  0  0  0
 23 24  1  0  0  0
 24 25  1  0  0  0
 25 26  1  0  0  0
 25 27  2  0  0  0
 27 28  1  0  0  0
 28 20  1  0  0  0
 20 19  1  0  0  0
 19  1  1  0  0  0
  1  2  2  0  0  0
  2  3  1  0  0  0
  3  4  2  0  0  0
  4  5  1  0  0  0
  5  7  1  0  0  0
  7  8  1  0  0  0
  8  9  2  0  0  0
  8 11  1  0  0  0
 11 12  2  0  0  0
 12 13  1  0  0  0
 13 14  2  0  0  0
 14 15  1  0  0  0
 15 16  2  0  0  0
 16 17  1  0  0  0
 17 18  2  0  0  0
  5  6  2  0  0  0
 28 29  2  0  0  0
 29 30  1  0  0  0
 30 31  2  0  0  0
 26 22  1  0  0  0
  6  1  1  0  0  0
 30 24  1  0  0  0
 18 13  1  0  0  0
  7 10  1  0  0  0
M  END
>  <minimizedAffinity>
-8.31022

>  <minimizedRMSD>
1.01630

$$$$
ChemDiv-G756-0399 MCULE-7934502044 MolPort-007-879-129 PubChem-46355996 ZINC000033067809


 34 37  0  0  0  0  0  0  0  0999 V2000
   17.4227  -10.1571   14.6796 C   0  0  0  0  0  0  0  0  0  0  0  0
   17.8644  -11.4420   15.0931 C   0  0  0  0  0  0  0  0  0  0  0  0
   18.4450  -12.4503   14.1624 C   0  0  0  0  0  0  0  0  0  0  0  0
   17.7602  -11.8080   16.4387 C   0  0  0  0  0  0  0  0  0  0  0  0
   17.2278  -10.9245   17.3779 C   0  0  0  0  0  0  0  0  0  0  0  0
   16.7913   -9.6588   16.9861 C   0  0  0  0  0  0  0  0  0  0  0  0
   16.8918   -9.2873   15.6391 C   0  0  0  0  0  0  0  0  0  0  0  0
   16.2458   -8.7786   17.9784 N   0  0  0  0  0  0  0  0  0  0  0  0
   15.0608   -7.9815   17.8597 C   0  0  0  0  0  0  0  0  0  0  0  0
   14.4020   -7.9580   16.7847 O   0  0  0  0  0  0  0  0  0  0  0  0
   14.6570   -7.1728   18.9687 N   0  0  0  0  0  0  0  0  0  0  0  0
   16.7364   -8.7154   18.8296 H   0  0  0  0  0  0  0  0  0  0  0  0
   15.2900   -7.0762   19.7164 H   0  0  0  0  0  0  0  0  0  0  0  0
   13.3991   -6.4926   19.0721 C   0  0  0  0  0  0  0  0  0  0  0  0
   13.4151   -5.1094   19.2779 C   0  0  0  0  0  0  0  0  0  0  0  0
   12.2235   -4.3944   19.3970 C   0  0  0  0  0  0  0  0  0  0  0  0
   11.0007   -5.0607   19.3235 C   0  0  0  0  0  0  0  0  0  0  0  0
   10.9611   -6.4455   19.1431 C   0  0  0  0  0  0  0  0  0  0  0  0
    9.6289   -7.1157   19.0952 C   0  0  0  0  0  0  0  0  0  0  0  0
   12.1612   -7.1772   19.0293 C   0  0  0  0  0  0  0  0  0  0  0  0
   12.1146   -8.6709   18.9404 C   0  0  0  0  0  0  0  0  0  0  0  0
   17.4761   -9.6798   13.3601 O   0  0  0  0  0  0  0  0  0  0  0  0
   18.5971   -9.7741   12.4930 C   0  0  0  0  0  0  0  0  0  0  0  0
   17.3805   -8.8803    8.5322 N   0  0  0  0  0  0  0  0  0  0  0  0
   17.0014   -8.5753    7.2551 C   0  0  0  0  0  0  0  0  0  0  0  0
   17.8049   -7.7729    6.4430 C   0  0  0  0  0  0  0  0  0  0  0  0
   19.0069   -7.2794    6.9462 C   0  0  0  0  0  0  0  0  0  0  0  0
   19.3934   -7.5906    8.2486 C   0  0  0  0  0  0  0  0  0  0  0  0
   18.5679   -8.3966    9.0361 C   0  0  0  0  0  0  0  0  0  0  0  0
   18.9464   -8.6984   10.3050 N   0  0  0  0  0  0  0  0  0  0  0  0
   18.1741   -9.4825   11.0982 C   0  0  0  0  0  0  0  0  0  0  0  0
   16.9648   -9.9779   10.6197 C   0  0  0  0  0  0  0  0  0  0  0  0
   16.5793   -9.6663    9.3168 C   0  0  0  0  0  0  0  0  0  0  0  0
   15.4854  -10.1181    8.8795 O   0  0  0  0  0  0  0  0  0  0  0  0
 24 25  1  0  0  0
 25 26  2  0  0  0
 26 27  1  0  0  0
 27 28  2  0  0  0
 28 29  1  0  0  0
 29 30  2  0  0  0
 30 31  1  0  0  0
 31 23  1  0  0  0
 23 22  1  0  0  0
 22  1  1  0  0  0
  1  2  2  0  0  0
  2  3  1  0  0  0
  2  4  1  0  0  0
  4  5  2  0  0  0
  5  6  1  0  0  0
  6  7  2  0  0  0
  6  8  1  0  0  0
  8  9  1  0  0  0
  9 10  2  0  0  0
  9 11  1  0  0  0
 11 14  1  0  0  0
 14 15  2  0  0  0
 15 16  1  0  0  0
 16 17  2  0  0  0
 17 18  1  0  0  0
 18 19  1  0  0  0
 18 20  2  0  0  0
 20 21  1  0  0  0
 31 32  2  0  0  0
 32 33  1  0  0  0
 33 34  2  0  0  0
 29 24  1  0  0  0
  7  1  1  0  0  0
 20 14  1  0  0  0
 33 24  1  0  0  0
  8 12  1  0  0  0
 11 13  1  0  0  0
M  END
>  <minimizedAffinity>
-8.30391

>  <minimizedRMSD>
1.62802

$$$$
ChemDiv-G756-1424 MCULE-6070915825 MolPort-007-879-818 PubChem-46356572 ZINC000033068143 ZINC33068143


 29 31  0  0  0  0  0  0  0  0999 V2000
   16.9488   -9.1288   16.5033 C   0  0  0  0  0  0  0  0  0  0  0  0
   16.2950   -8.9797   15.2707 C   0  0  0  0  0  0  0  0  0  0  0  0
   16.9567   -9.2650   14.0722 C   0  0  0  0  0  0  0  0  0  0  0  0
   18.2892   -9.7049   14.1090 C   0  0  0  0  0  0  0  0  0  0  0  0
   18.9461   -9.8558   15.3326 C   0  0  0  0  0  0  0  0  0  0  0  0
   18.2764   -9.5683   16.5249 C   0  0  0  0  0  0  0  0  0  0  0  0
   15.1987   -7.9463   17.9560 C   0  0  0  0  0  0  0  0  0  0  0  0
   14.6987   -7.2957   16.9979 O   0  0  0  0  0  0  0  0  0  0  0  0
   16.2960   -8.8447   17.7482 N   0  0  0  0  0  0  0  0  0  0  0  0
   16.6370   -9.3157   18.5426 H   0  0  0  0  0  0  0  0  0  0  0  0
   14.6456   -7.7901   19.3372 C   0  0  0  0  0  0  0  0  0  0  0  0
   15.1743   -7.0719   21.6680 C   0  0  0  0  0  0  0  0  0  0  0  0
   15.6768   -7.1271   20.2376 C   0  0  0  0  0  0  0  0  0  0  0  0
   13.3557   -6.9781   19.3171 C   0  0  0  0  0  0  0  0  0  0  0  0
   12.1509   -7.8921   19.4404 C   0  0  0  0  0  0  0  0  0  0  0  0
   16.2704   -9.1039   12.8659 O   0  0  0  0  0  0  0  0  0  0  0  0
   16.0945  -10.1641   11.9354 C   0  0  0  0  0  0  0  0  0  0  0  0
   16.7003   -9.7883   10.6308 C   0  0  0  0  0  0  0  0  0  0  0  0
   16.1610  -10.2798    9.4458 C   0  0  0  0  0  0  0  0  0  0  0  0
   16.7319   -9.8901    8.2353 C   0  0  0  0  0  0  0  0  0  0  0  0
   16.2473  -10.3378    7.1598 O   0  0  0  0  0  0  0  0  0  0  0  0
   17.8000   -9.0332    8.2233 N   0  0  0  0  0  0  0  0  0  0  0  0
   18.3584   -8.6514    7.0359 C   0  0  0  0  0  0  0  0  0  0  0  0
   19.4454   -7.7765    7.0071 C   0  0  0  0  0  0  0  0  0  0  0  0
   20.0440   -7.3682    5.7097 C   0  0  0  0  0  0  0  0  0  0  0  0
   19.9640   -7.2885    8.2046 C   0  0  0  0  0  0  0  0  0  0  0  0
   19.3939   -7.6781    9.4152 C   0  0  0  0  0  0  0  0  0  0  0  0
   18.3070   -8.5557    9.4121 C   0  0  0  0  0  0  0  0  0  0  0  0
   17.7531   -8.9336   10.5931 N   0  0  0  0  0  0  0  0  0  0  0  0
 12 13  1  0  0  0
 13 11  1  0  0  0
 11 14  1  0  0  0
 11  7  1  0  0  0
 14 15  1  0  0  0
  7  8  2  0  0  0
  7  9  1  0  0  0
  9  1  1  0  0  0
  1  2  2  0  0  0
  2  3  1  0  0  0
  3 16  1  0  0  0
  3  4  2  0  0  0
 16 17  1  0  0  0
 17 18  1  0  0  0
 18 19  2  0  0  0
 19 20  1  0  0  0
 20 21  2  0  0  0
 20 22  1  0  0  0
 22 23  1  0  0  0
 23 24  2  0  0  0
 24 25  1  0  0  0
 24 26  1  0  0  0
 26 27  2  0  0  0
 27 28  1  0  0  0
 28 29  2  0  0  0
 28 22  1  0  0  0
 29 18  1  0  0  0
  4  5  1  0  0  0
  5  6  2  0  0  0
  6  1  1  0  0  0
  9 10  1  0  0  0
M  END
>  <minimizedAffinity>
-8.30269

>  <minimizedRMSD>
1.38325

$$$$
ChemDiv-C679-4043 MCULE-4707678497 MolPort-007-655-767 PubChem-46258312 ZINC000013367894


 30 33  0  0  0  0  0  0  0  0999 V2000
   17.4149  -10.3372   14.2259 C   0  0  0  0  0  0  0  0  0  0  0  0
   18.1420  -11.4889   14.5657 C   0  0  0  0  0  0  0  0  0  0  0  0
   18.2118  -11.9090   15.8961 C   0  0  0  0  0  0  0  0  0  0  0  0
   17.5564  -11.1821   16.8934 C   0  0  0  0  0  0  0  0  0  0  0  0
   16.8282  -10.0328   16.5694 C   0  0  0  0  0  0  0  0  0  0  0  0
   16.7624   -9.6165   15.2310 C   0  0  0  0  0  0  0  0  0  0  0  0
   16.1697   -9.3144   17.6215 N   0  0  0  0  0  0  0  0  0  0  0  0
   15.3610   -8.1356   17.4853 C   0  0  0  0  0  0  0  0  0  0  0  0
   15.1637   -7.6197   16.3514 O   0  0  0  0  0  0  0  0  0  0  0  0
   16.2842   -9.6666   18.5337 H   0  0  0  0  0  0  0  0  0  0  0  0
   14.7561   -7.5232   18.6814 C   0  0  0  0  0  0  0  0  0  0  0  0
   13.5310   -6.8451   18.5903 C   0  0  0  0  0  0  0  0  0  0  0  0
   12.9581   -6.2645   19.7258 C   0  0  0  0  0  0  0  0  0  0  0  0
   13.6057   -6.3576   20.9605 C   0  0  0  0  0  0  0  0  0  0  0  0
   14.8260   -7.0312   21.0602 C   0  0  0  0  0  0  0  0  0  0  0  0
   15.4539   -7.1216   22.2568 F   0  0  0  0  0  0  0  0  0  0  0  0
   15.3989   -7.6117   19.9248 C   0  0  0  0  0  0  0  0  0  0  0  0
   17.3248   -9.8896   12.9055 O   0  0  0  0  0  0  0  0  0  0  0  0
   18.3913   -9.2177   12.2482 C   0  0  0  0  0  0  0  0  0  0  0  0
   17.6918   -9.1754    8.0903 N   0  0  0  0  0  0  0  0  0  0  0  0
   17.5974   -9.0627    6.7675 N   0  0  0  0  0  0  0  0  0  0  0  0
   18.5945   -8.3056    6.2506 C   0  0  0  0  0  0  0  0  0  0  0  0
   19.6530   -7.7355    7.4478 S   0  0  0  0  0  0  0  0  0  0  0  0
   18.7450   -8.5206    8.6232 C   0  0  0  0  0  0  0  0  0  0  0  0
   18.9892   -8.5288    9.9563 N   0  0  0  0  0  0  0  0  0  0  0  0
   18.1536   -9.2219   10.7807 C   0  0  0  0  0  0  0  0  0  0  0  0
   17.0447   -9.9056   10.2554 C   0  0  0  0  0  0  0  0  0  0  0  0
   16.8269   -9.8724    8.8736 C   0  0  0  0  0  0  0  0  0  0  0  0
   15.8437  -10.4785    8.3709 O   0  0  0  0  0  0  0  0  0  0  0  0
   18.7310   -8.0159    4.7996 C   0  0  0  0  0  0  0  0  0  0  0  0
 20 21  1  0  0  0
 21 22  2  0  0  0
 22 23  1  0  0  0
 23 24  1  0  0  0
 24 25  2  0  0  0
 25 26  1  0  0  0
 26 19  1  0  0  0
 19 18  1  0  0  0
 18  1  1  0  0  0
  1  2  2  0  0  0
  2  3  1  0  0  0
  3  4  2  0  0  0
  4  5  1  0  0  0
  5  6  2  0  0  0
  5  7  1  0  0  0
  7  8  1  0  0  0
  8  9  2  0  0  0
  8 11  1  0  0  0
 11 12  2  0  0  0
 12 13  1  0  0  0
 13 14  2  0  0  0
 14 15  1  0  0  0
 15 16  1  0  0  0
 15 17  2  0  0  0
 26 27  2  0  0  0
 27 28  1  0  0  0
 28 29  2  0  0  0
 22 30  1  0  0  0
 24 20  1  0  0  0
  6  1  1  0  0  0
 17 11  1  0  0  0
 28 20  1  0  0  0
  7 10  1  0  0  0
M  END
>  <minimizedAffinity>
-8.29387

>  <minimizedRMSD>
0.99151

$$$$
ChemDiv-C679-4200 MCULE-6162186094 MolPort-007-655-811 PubChem-20874225 ZINC000013368010 ZINC13368010


 34 37  0  0  0  0  0  0  0  0999 V2000
   17.5037  -10.3918   13.9194 C   0  0  0  0  0  0  0  0  0  0  0  0
   18.0082  -11.6687   14.2110 C   0  0  0  0  0  0  0  0  0  0  0  0
   18.0657  -12.1167   15.5328 C   0  0  0  0  0  0  0  0  0  0  0  0
   17.6208  -11.2925   16.5697 C   0  0  0  0  0  0  0  0  0  0  0  0
   17.1179  -10.0169   16.2941 C   0  0  0  0  0  0  0  0  0  0  0  0
   17.0613   -9.5740   14.9639 C   0  0  0  0  0  0  0  0  0  0  0  0
   16.6676   -9.2023   17.3851 N   0  0  0  0  0  0  0  0  0  0  0  0
   15.6579   -8.1864   17.3354 C   0  0  0  0  0  0  0  0  0  0  0  0
   15.0776   -7.8931   16.2569 O   0  0  0  0  0  0  0  0  0  0  0  0
   17.0961   -9.3569   18.2578 H   0  0  0  0  0  0  0  0  0  0  0  0
   15.2753   -7.4757   18.5878 C   0  0  0  0  0  0  0  0  0  0  0  0
   14.1199   -8.0775   19.1633 O   0  0  0  0  0  0  0  0  0  0  0  0
   12.8676   -7.4544   19.2014 C   0  0  0  0  0  0  0  0  0  0  0  0
   12.6549   -6.2695   19.9253 C   0  0  0  0  0  0  0  0  0  0  0  0
   11.3913   -5.6726   19.9450 C   0  0  0  0  0  0  0  0  0  0  0  0
   11.1743   -4.4184   20.7116 C   0  0  0  0  0  0  0  0  0  0  0  0
   10.3327   -6.2554   19.2432 C   0  0  0  0  0  0  0  0  0  0  0  0
   10.5380   -7.4351   18.5224 C   0  0  0  0  0  0  0  0  0  0  0  0
   11.8020   -8.0324   18.5029 C   0  0  0  0  0  0  0  0  0  0  0  0
   17.4301   -9.9139   12.6087 O   0  0  0  0  0  0  0  0  0  0  0  0
   18.4411   -9.0985   12.0310 C   0  0  0  0  0  0  0  0  0  0  0  0
   18.8950   -8.0132    6.0640 C   0  0  0  0  0  0  0  0  0  0  0  0
   17.9110   -8.8269    6.5226 N   0  0  0  0  0  0  0  0  0  0  0  0
   17.9459   -8.9709    7.8455 N   0  0  0  0  0  0  0  0  0  0  0  0
   18.9412   -8.2874    8.4472 C   0  0  0  0  0  0  0  0  0  0  0  0
   19.8679   -7.4342    7.3389 S   0  0  0  0  0  0  0  0  0  0  0  0
   19.1200   -8.3212    9.7903 N   0  0  0  0  0  0  0  0  0  0  0  0
   18.2761   -9.0717   10.5538 C   0  0  0  0  0  0  0  0  0  0  0  0
   17.2257   -9.7878    9.9561 C   0  0  0  0  0  0  0  0  0  0  0  0
   17.0751   -9.7257    8.5663 C   0  0  0  0  0  0  0  0  0  0  0  0
   16.1457  -10.3593    7.9995 O   0  0  0  0  0  0  0  0  0  0  0  0
   20.5381   -7.6451    4.2540 C   0  0  0  0  0  0  0  0  0  0  0  0
   19.0647   -7.6999    4.6063 C   0  0  0  0  0  0  0  0  0  0  0  0
   18.3689   -8.7056    3.7054 C   0  0  0  0  0  0  0  0  0  0  0  0
 32 33  1  0  0  0
 33 34  1  0  0  0
 33 22  1  0  0  0
 22 23  2  0  0  0
 23 24  1  0  0  0
 24 25  1  0  0  0
 25 26  1  0  0  0
 25 27  2  0  0  0
 26 22  1  0  0  0
 27 28  1  0  0  0
 28 21  1  0  0  0
 28 29  2  0  0  0
 21 20  1  0  0  0
 20  1  1  0  0  0
  1  2  2  0  0  0
  2  3  1  0  0  0
  3  4  2  0  0  0
  4  5  1  0  0  0
  5  7  1  0  0  0
  5  6  2  0  0  0
  7  8  1  0  0  0
  8  9  2  0  0  0
  8 11  1  0  0  0
 11 12  1  0  0  0
 12 13  1  0  0  0
 13 14  2  0  0  0
 14 15  1  0  0  0
 15 16  1  0  0  0
 15 17  2  0  0  0
 17 18  1  0  0  0
 18 19  2  0  0  0
 19 13  1  0  0  0
  6  1  1  0  0  0
 29 30  1  0  0  0
 30 31  2  0  0  0
 30 24  1  0  0  0
  7 10  1  0  0  0
M  END
>  <minimizedAffinity>
-8.28814

>  <minimizedRMSD>
1.95747

$$$$
ChemDiv-G756-1432 MCULE-5872680199 MolPort-007-879-825 PubChem-46356579 ZINC000033068150 ZINC33068150


 34 37  0  0  0  0  0  0  0  0999 V2000
   17.1038   -9.8191   14.2215 C   0  0  0  0  0  0  0  0  0  0  0  0
   17.8103  -11.0233   14.3684 C   0  0  0  0  0  0  0  0  0  0  0  0
   18.0472  -11.5485   15.6410 C   0  0  0  0  0  0  0  0  0  0  0  0
   17.5801  -10.8748   16.7725 C   0  0  0  0  0  0  0  0  0  0  0  0
   16.8749   -9.6743   16.6411 C   0  0  0  0  0  0  0  0  0  0  0  0
   16.6403   -9.1523   15.3600 C   0  0  0  0  0  0  0  0  0  0  0  0
   16.4102   -9.0145   17.8262 N   0  0  0  0  0  0  0  0  0  0  0  0
   15.4472   -7.9550   17.8976 C   0  0  0  0  0  0  0  0  0  0  0  0
   14.9074   -7.4902   16.8589 O   0  0  0  0  0  0  0  0  0  0  0  0
   16.7923   -9.3211   18.6801 H   0  0  0  0  0  0  0  0  0  0  0  0
   15.0510   -7.4178   19.2297 C   0  0  0  0  0  0  0  0  0  0  0  0
   13.8181   -6.7120   19.1297 O   0  0  0  0  0  0  0  0  0  0  0  0
   12.6105   -7.3232   18.7734 C   0  0  0  0  0  0  0  0  0  0  0  0
   11.7760   -6.6865   17.8506 C   0  0  0  0  0  0  0  0  0  0  0  0
   10.5629   -7.2705   17.4757 C   0  0  0  0  0  0  0  0  0  0  0  0
   10.1717   -8.4973   18.0205 C   0  0  0  0  0  0  0  0  0  0  0  0
    8.8708   -9.0895   17.5951 C   0  0  0  0  0  0  0  0  0  0  0  0
   11.0055   -9.1441   18.9511 C   0  0  0  0  0  0  0  0  0  0  0  0
   10.6306  -10.4536   19.5582 C   0  0  0  0  0  0  0  0  0  0  0  0
   12.2166   -8.5535   19.3229 C   0  0  0  0  0  0  0  0  0  0  0  0
   16.8522   -9.2650   12.9639 O   0  0  0  0  0  0  0  0  0  0  0  0
   16.1317   -9.9544   11.9509 C   0  0  0  0  0  0  0  0  0  0  0  0
   19.9964   -7.4649    5.5436 C   0  0  0  0  0  0  0  0  0  0  0  0
   19.4114   -7.8049    6.8665 C   0  0  0  0  0  0  0  0  0  0  0  0
   18.3422   -8.6980    6.9544 C   0  0  0  0  0  0  0  0  0  0  0  0
   17.7968   -9.0181    8.1660 N   0  0  0  0  0  0  0  0  0  0  0  0
   16.7458   -9.8933    8.2359 C   0  0  0  0  0  0  0  0  0  0  0  0
   16.2656  -10.4154    7.1921 O   0  0  0  0  0  0  0  0  0  0  0  0
   16.1886  -10.2207    9.4714 C   0  0  0  0  0  0  0  0  0  0  0  0
   16.7235   -9.6482   10.6217 C   0  0  0  0  0  0  0  0  0  0  0  0
   17.7586   -8.7760   10.5259 N   0  0  0  0  0  0  0  0  0  0  0  0
   18.2995   -8.4597    9.3210 C   0  0  0  0  0  0  0  0  0  0  0  0
   19.3686   -7.5620    9.2648 C   0  0  0  0  0  0  0  0  0  0  0  0
   19.9256   -7.2354    8.0296 C   0  0  0  0  0  0  0  0  0  0  0  0
 23 24  1  0  0  0
 24 25  2  0  0  0
 25 26  1  0  0  0
 26 27  1  0  0  0
 27 28  2  0  0  0
 27 29  1  0  0  0
 29 30  2  0  0  0
 30 22  1  0  0  0
 30 31  1  0  0  0
 22 21  1  0  0  0
 21  1  1  0  0  0
  1  2  2  0  0  0
  2  3  1  0  0  0
  3  4  2  0  0  0
  4  5  1  0  0  0
  5  7  1  0  0  0
  5  6  2  0  0  0
  7  8  1  0  0  0
  8  9  2  0  0  0
  8 11  1  0  0  0
 11 12  1  0  0  0
 12 13  1  0  0  0
 13 14  2  0  0  0
 14 15  1  0  0  0
 15 16  2  0  0  0
 16 17  1  0  0  0
 16 18  1  0  0  0
 18 19  1  0  0  0
 18 20  2  0  0  0
 20 13  1  0  0  0
  6  1  1  0  0  0
 31 32  2  0  0  0
 32 33  1  0  0  0
 32 26  1  0  0  0
 33 34  2  0  0  0
 34 24  1  0  0  0
  7 10  1  0  0  0
M  END
>  <minimizedAffinity>
-8.28543

>  <minimizedRMSD>
1.71500

$$$$
ChemDiv-G355-2351 MCULE-4483352571 MolPort-010-840-361 PubChem-52096608 ZINC000041077359


 33 36  0  0  0  0  0  0  0  0999 V2000
   17.4304  -10.2137   14.2923 C   0  0  0  0  0  0  0  0  0  0  0  0
   18.0164  -11.4513   14.6694 C   0  0  0  0  0  0  0  0  0  0  0  0
   18.6483  -12.3904   13.7005 C   0  0  0  0  0  0  0  0  0  0  0  0
   18.0125  -11.8361   16.0136 C   0  0  0  0  0  0  0  0  0  0  0  0
   17.4393  -11.0175   16.9870 C   0  0  0  0  0  0  0  0  0  0  0  0
   16.8595   -9.7999   16.6307 C   0  0  0  0  0  0  0  0  0  0  0  0
   16.8606   -9.4089   15.2856 C   0  0  0  0  0  0  0  0  0  0  0  0
   16.2818   -8.9839   17.6583 N   0  0  0  0  0  0  0  0  0  0  0  0
   15.2527   -7.9996   17.4958 C   0  0  0  0  0  0  0  0  0  0  0  0
   14.7445   -7.7650   16.3676 O   0  0  0  0  0  0  0  0  0  0  0  0
   16.6282   -9.1131   18.5707 H   0  0  0  0  0  0  0  0  0  0  0  0
   14.8040   -7.2094   18.6762 C   0  0  0  0  0  0  0  0  0  0  0  0
   15.1653   -7.8815   19.8772 O   0  0  0  0  0  0  0  0  0  0  0  0
   15.1868   -7.2817   21.1446 C   0  0  0  0  0  0  0  0  0  0  0  0
   16.3978   -6.7388   21.5894 C   0  0  0  0  0  0  0  0  0  0  0  0
   16.4883   -6.1305   22.8437 C   0  0  0  0  0  0  0  0  0  0  0  0
   15.3626   -6.0550   23.6656 C   0  0  0  0  0  0  0  0  0  0  0  0
   14.1451   -6.5825   23.2306 C   0  0  0  0  0  0  0  0  0  0  0  0
   14.0475   -7.1927   21.9760 C   0  0  0  0  0  0  0  0  0  0  0  0
   12.8391   -7.6596   21.5773 F   0  0  0  0  0  0  0  0  0  0  0  0
   17.3753   -9.7231   12.9777 O   0  0  0  0  0  0  0  0  0  0  0  0
   18.4531   -9.1205   12.2757 C   0  0  0  0  0  0  0  0  0  0  0  0
   17.6556   -9.1794    8.1330 N   0  0  0  0  0  0  0  0  0  0  0  0
   17.5522   -9.0809    6.7807 C   0  0  0  0  0  0  0  0  0  0  0  0
   18.5713   -8.3171    6.2163 C   0  0  0  0  0  0  0  0  0  0  0  0
   19.6155   -7.7566    7.4240 S   0  0  0  0  0  0  0  0  0  0  0  0
   18.7239   -8.5142    8.6268 C   0  0  0  0  0  0  0  0  0  0  0  0
   18.9977   -8.4913    9.9542 N   0  0  0  0  0  0  0  0  0  0  0  0
   18.1807   -9.1604   10.8151 C   0  0  0  0  0  0  0  0  0  0  0  0
   17.0589   -9.8530   10.3335 C   0  0  0  0  0  0  0  0  0  0  0  0
   16.8081   -9.8540    8.9572 C   0  0  0  0  0  0  0  0  0  0  0  0
   15.8101  -10.4713    8.4978 O   0  0  0  0  0  0  0  0  0  0  0  0
   18.7204   -8.0340    4.7652 C   0  0  0  0  0  0  0  0  0  0  0  0
 23 24  1  0  0  0
 24 25  2  0  0  0
 25 26  1  0  0  0
 26 27  1  0  0  0
 27 28  2  0  0  0
 28 29  1  0  0  0
 29 22  1  0  0  0
 22 21  1  0  0  0
 21  1  1  0  0  0
  1  2  2  0  0  0
  2  3  1  0  0  0
  2  4  1  0  0  0
  4  5  2  0  0  0
  5  6  1  0  0  0
  6  7  2  0  0  0
  6  8  1  0  0  0
  8  9  1  0  0  0
  9 12  1  0  0  0
 12 13  1  0  0  0
 13 14  1  0  0  0
 14 15  2  0  0  0
 15 16  1  0  0  0
 16 17  2  0  0  0
 17 18  1  0  0  0
 18 19  2  0  0  0
 19 20  1  0  0  0
  9 10  2  0  0  0
 29 30  2  0  0  0
 30 31  1  0  0  0
 31 32  2  0  0  0
 25 33  1  0  0  0
 27 23  1  0  0  0
  7  1  1  0  0  0
 19 14  1  0  0  0
 31 23  1  0  0  0
  8 11  1  0  0  0
M  END
>  <minimizedAffinity>
-8.28425

>  <minimizedRMSD>
1.75733

$$$$
ChemDiv-C679-4003 MCULE-4135575401 MolPort-007-655-735 PubChem-46258300 ZINC000013367813


 30 33  0  0  0  0  0  0  0  0999 V2000
   17.1704  -10.5744   14.2932 C   0  0  0  0  0  0  0  0  0  0  0  0
   18.0755  -11.5892   14.6414 C   0  0  0  0  0  0  0  0  0  0  0  0
   18.3425  -11.8621   15.9851 C   0  0  0  0  0  0  0  0  0  0  0  0
   17.7076  -11.1241   16.9874 C   0  0  0  0  0  0  0  0  0  0  0  0
   16.8031  -10.1103   16.6552 C   0  0  0  0  0  0  0  0  0  0  0  0
   16.5400   -9.8412   15.3033 C   0  0  0  0  0  0  0  0  0  0  0  0
   16.1723   -9.3756   17.7132 N   0  0  0  0  0  0  0  0  0  0  0  0
   15.4318   -8.1501   17.5932 C   0  0  0  0  0  0  0  0  0  0  0  0
   15.2806   -7.6139   16.4636 O   0  0  0  0  0  0  0  0  0  0  0  0
   16.2556   -9.7515   18.6193 H   0  0  0  0  0  0  0  0  0  0  0  0
   14.8524   -7.5303   18.8124 C   0  0  0  0  0  0  0  0  0  0  0  0
   15.6479   -7.4958   19.9697 C   0  0  0  0  0  0  0  0  0  0  0  0
   15.1754   -6.9288   21.1542 C   0  0  0  0  0  0  0  0  0  0  0  0
   13.8938   -6.3838   21.2015 C   0  0  0  0  0  0  0  0  0  0  0  0
   13.0863   -6.4066   20.0645 C   0  0  0  0  0  0  0  0  0  0  0  0
   13.5478   -6.9725   18.8707 C   0  0  0  0  0  0  0  0  0  0  0  0
   12.4371   -6.9441   17.5068 Cl  0  0  0  0  0  0  0  0  0  0  0  0
   16.8810  -10.2756   12.9595 O   0  0  0  0  0  0  0  0  0  0  0  0
   17.1346   -9.0000   12.3858 C   0  0  0  0  0  0  0  0  0  0  0  0
   17.5633   -9.3482    8.2057 N   0  0  0  0  0  0  0  0  0  0  0  0
   17.7947   -9.3291    6.8953 N   0  0  0  0  0  0  0  0  0  0  0  0
   18.6667   -8.3525    6.5482 C   0  0  0  0  0  0  0  0  0  0  0  0
   19.1935   -7.4575    7.8898 S   0  0  0  0  0  0  0  0  0  0  0  0
   18.2384   -8.4049    8.8960 C   0  0  0  0  0  0  0  0  0  0  0  0
   18.1184   -8.2827   10.2404 N   0  0  0  0  0  0  0  0  0  0  0  0
   17.2995   -9.1388   10.9149 C   0  0  0  0  0  0  0  0  0  0  0  0
   16.5785  -10.1253   10.2220 C   0  0  0  0  0  0  0  0  0  0  0  0
   16.7298  -10.2187    8.8341 C   0  0  0  0  0  0  0  0  0  0  0  0
   16.0999  -11.0946    8.1842 O   0  0  0  0  0  0  0  0  0  0  0  0
   19.1014   -8.1059    5.1489 C   0  0  0  0  0  0  0  0  0  0  0  0
 20 21  1  0  0  0
 21 22  2  0  0  0
 22 23  1  0  0  0
 23 24  1  0  0  0
 24 25  2  0  0  0
 25 26  1  0  0  0
 26 19  1  0  0  0
 19 18  1  0  0  0
 18  1  1  0  0  0
  1  2  2  0  0  0
  2  3  1  0  0  0
  3  4  2  0  0  0
  4  5  1  0  0  0
  5  6  2  0  0  0
  5  7  1  0  0  0
  7  8  1  0  0  0
  8  9  2  0  0  0
  8 11  1  0  0  0
 11 12  2  0  0  0
 12 13  1  0  0  0
 13 14  2  0  0  0
 14 15  1  0  0  0
 15 16  2  0  0  0
 16 17  1  0  0  0
 26 27  2  0  0  0
 27 28  1  0  0  0
 28 29  2  0  0  0
 22 30  1  0  0  0
 24 20  1  0  0  0
  6  1  1  0  0  0
 16 11  1  0  0  0
 28 20  1  0  0  0
  7 10  1  0  0  0
M  END
>  <minimizedAffinity>
-8.28199

>  <minimizedRMSD>
1.16269

$$$$
ChemDiv-F172-0175 MCULE-4300990983 MolPort-010-761-900 PubChem-50764215 ZINC000045900797 ZINC45900797


 31 34  0  0  0  0  0  0  0  0999 V2000
   16.9950   -9.5406   14.8759 C   0  0  0  0  0  0  0  0  0  0  0  0
   17.5680  -10.6545   15.5096 C   0  0  0  0  0  0  0  0  0  0  0  0
   17.4330  -10.8247   16.8894 C   0  0  0  0  0  0  0  0  0  0  0  0
   16.7259   -9.8843   17.6433 C   0  0  0  0  0  0  0  0  0  0  0  0
   16.1504   -8.7693   17.0255 C   0  0  0  0  0  0  0  0  0  0  0  0
   16.2891   -8.6051   15.6388 C   0  0  0  0  0  0  0  0  0  0  0  0
   15.4303   -7.8290   17.8339 N   0  0  0  0  0  0  0  0  0  0  0  0
   14.0154   -7.7973   18.0707 C   0  0  0  0  0  0  0  0  0  0  0  0
   13.2601   -8.6302   17.4986 O   0  0  0  0  0  0  0  0  0  0  0  0
   15.9647   -7.1292   18.2744 H   0  0  0  0  0  0  0  0  0  0  0  0
   13.4150   -6.7620   18.9471 C   0  0  0  0  0  0  0  0  0  0  0  0
   13.7300   -6.6166   20.3230 C   0  0  0  0  0  0  0  0  0  0  0  0
   14.8143   -7.6942   21.1920 Cl  0  0  0  0  0  0  0  0  0  0  0  0
   13.1229   -5.6020   21.0712 C   0  0  0  0  0  0  0  0  0  0  0  0
   12.2088   -4.7303   20.4794 C   0  0  0  0  0  0  0  0  0  0  0  0
   11.4612   -3.4668   21.4316 Cl  0  0  0  0  0  0  0  0  0  0  0  0
   11.8834   -4.8734   19.1319 C   0  0  0  0  0  0  0  0  0  0  0  0
   12.4814   -5.8819   18.3748 C   0  0  0  0  0  0  0  0  0  0  0  0
   17.1108   -9.3406   13.4980 O   0  0  0  0  0  0  0  0  0  0  0  0
   18.0046  -10.0904   12.6860 C   0  0  0  0  0  0  0  0  0  0  0  0
   19.2538   -6.9771    6.1978 C   0  0  0  0  0  0  0  0  0  0  0  0
   18.8033   -7.6905    7.4216 C   0  0  0  0  0  0  0  0  0  0  0  0
   19.5125   -7.7456    8.6263 C   0  0  0  0  0  0  0  0  0  0  0  0
   18.6590   -8.5146    9.3943 C   0  0  0  0  0  0  0  0  0  0  0  0
   18.8247   -8.9041   10.6821 N   0  0  0  0  0  0  0  0  0  0  0  0
   17.8580   -9.6733   11.2666 C   0  0  0  0  0  0  0  0  0  0  0  0
   16.7025  -10.0410   10.5467 C   0  0  0  0  0  0  0  0  0  0  0  0
   16.5764   -9.6133    9.2193 C   0  0  0  0  0  0  0  0  0  0  0  0
   15.5655   -9.9186    8.5340 O   0  0  0  0  0  0  0  0  0  0  0  0
   17.5737   -8.8609    8.6964 N   0  0  0  0  0  0  0  0  0  0  0  0
   17.6699   -8.3591    7.5078 O   0  0  0  0  0  0  0  0  0  0  0  0
 21 22  1  0  0  0
 22 23  2  0  0  0
 23 24  1  0  0  0
 24 25  2  0  0  0
 25 26  1  0  0  0
 26 20  1  0  0  0
 26 27  2  0  0  0
 20 19  1  0  0  0
 19  1  1  0  0  0
  1  2  2  0  0  0
  2  3  1  0  0  0
  3  4  2  0  0  0
  4  5  1  0  0  0
  5  7  1  0  0  0
  5  6  2  0  0  0
  7  8  1  0  0  0
  8  9  2  0  0  0
  8 11  1  0  0  0
 11 12  2  0  0  0
 12 13  1  0  0  0
 12 14  1  0  0  0
 14 15  2  0  0  0
 15 16  1  0  0  0
 15 17  1  0  0  0
 17 18  2  0  0  0
 18 11  1  0  0  0
  6  1  1  0  0  0
 27 28  1  0  0  0
 28 29  2  0  0  0
 28 30  1  0  0  0
 30 31  1  0  0  0
 30 24  1  0  0  0
 31 22  1  0  0  0
  7 10  1  0  0  0
M  END
>  <minimizedAffinity>
-8.27930

>  <minimizedRMSD>
1.17596

$$$$
ChemDiv-G357-2258 MCULE-2904351421 MolPort-007-847-800 PubChem-20953133 ZINC000015772089 ZINC15772089


 34 37  0  0  0  0  0  0  0  0999 V2000
   18.5215  -10.1886   12.4519 O   0  0  0  0  0  0  0  0  0  0  0  0
   18.4115  -10.9032   13.6469 C   0  0  0  0  0  0  0  0  0  0  0  0
   18.8668  -12.0776   13.7294 O   0  0  0  0  0  0  0  0  0  0  0  0
   16.5126   -9.0928   17.0347 C   0  0  0  0  0  0  0  0  0  0  0  0
   17.0891  -10.3623   17.1437 C   0  0  0  0  0  0  0  0  0  0  0  0
   17.7093  -10.9551   16.0406 C   0  0  0  0  0  0  0  0  0  0  0  0
   17.7626  -10.2820   14.8121 C   0  0  0  0  0  0  0  0  0  0  0  0
   17.1895   -9.0086   14.7027 C   0  0  0  0  0  0  0  0  0  0  0  0
   16.5682   -8.4175   15.8067 C   0  0  0  0  0  0  0  0  0  0  0  0
   14.6947   -7.7165   18.2179 C   0  0  0  0  0  0  0  0  0  0  0  0
   14.0620   -7.4741   17.1527 O   0  0  0  0  0  0  0  0  0  0  0  0
   15.8864   -8.5187   18.1902 N   0  0  0  0  0  0  0  0  0  0  0  0
   16.3193   -8.6928   19.0571 H   0  0  0  0  0  0  0  0  0  0  0  0
   13.1967   -8.1076   20.1447 C   0  0  0  0  0  0  0  0  0  0  0  0
   14.2134   -7.1624   19.5335 C   0  0  0  0  0  0  0  0  0  0  0  0
   15.3876   -7.0220   20.4825 C   0  0  0  0  0  0  0  0  0  0  0  0
   13.5634   -5.7970   19.3704 C   0  0  0  0  0  0  0  0  0  0  0  0
   17.4485   -9.4101   11.9427 C   0  0  0  0  0  0  0  0  0  0  0  0
   17.5614   -9.3086   10.4636 C   0  0  0  0  0  0  0  0  0  0  0  0
   16.7507  -10.1114    9.6437 C   0  0  0  0  0  0  0  0  0  0  0  0
   16.8611   -9.9811    8.2548 C   0  0  0  0  0  0  0  0  0  0  0  0
   16.1518  -10.6895    7.4918 O   0  0  0  0  0  0  0  0  0  0  0  0
   17.7439   -9.0800    7.7494 N   0  0  0  0  0  0  0  0  0  0  0  0
   17.9471   -8.8610    6.4529 N   0  0  0  0  0  0  0  0  0  0  0  0
   18.8874   -7.9068    6.2386 C   0  0  0  0  0  0  0  0  0  0  0  0
   19.5087   -7.2877    7.6913 S   0  0  0  0  0  0  0  0  0  0  0  0
   18.5046   -8.3156    8.5610 C   0  0  0  0  0  0  0  0  0  0  0  0
   18.4259   -8.4116    9.9106 N   0  0  0  0  0  0  0  0  0  0  0  0
   19.3205   -7.4579    4.8835 C   0  0  0  0  0  0  0  0  0  0  0  0
   20.4858   -6.4598    4.9869 C   0  0  0  0  0  0  0  0  0  0  0  0
   21.8317   -7.1398    4.7455 C   0  0  0  0  0  0  0  0  0  0  0  0
   21.8963   -7.7649    3.3455 C   0  0  0  0  0  0  0  0  0  0  0  0
   20.5431   -8.2865    2.8405 C   0  0  0  0  0  0  0  0  0  0  0  0
   19.6236   -8.6728    3.9952 C   0  0  0  0  0  0  0  0  0  0  0  0
 14 15  1  0  0  0
 15 16  1  0  0  0
 15 17  1  0  0  0
 15 10  1  0  0  0
 10 11  2  0  0  0
 10 12  1  0  0  0
 12  4  1  0  0  0
  4  5  2  0  0  0
  5  6  1  0  0  0
  6  7  2  0  0  0
  7  8  1  0  0  0
  7  2  1  0  0  0
  8  9  2  0  0  0
  9  4  1  0  0  0
  2  3  2  0  0  0
  2  1  1  0  0  0
  1 18  1  0  0  0
 18 19  1  0  0  0
 19 20  2  0  0  0
 20 21  1  0  0  0
 21 22  2  0  0  0
 21 23  1  0  0  0
 23 24  1  0  0  0
 24 25  2  0  0  0
 25 26  1  0  0  0
 25 29  1  0  0  0
 26 27  1  0  0  0
 27 28  2  0  0  0
 27 23  1  0  0  0
 28 19  1  0  0  0
 29 30  1  0  0  0
 30 31  1  0  0  0
 31 32  1  0  0  0
 32 33  1  0  0  0
 33 34  1  0  0  0
 34 29  1  0  0  0
 12 13  1  0  0  0
M  END
>  <minimizedAffinity>
-8.27902

>  <minimizedRMSD>
1.89408

$$$$
ChemDiv-C679-5559 CHEMBL1564898 MCULE-3068551734 MolPort-007-656-132 PubChem-16009570 ZINC000008603795


 30 33  0  0  0  0  0  0  0  0999 V2000
   17.2300  -10.7084   14.3660 C   0  0  0  0  0  0  0  0  0  0  0  0
   18.1668  -11.6778   14.7574 C   0  0  0  0  0  0  0  0  0  0  0  0
   18.4344  -11.8900   16.1119 C   0  0  0  0  0  0  0  0  0  0  0  0
   17.7685  -11.1361   17.0819 C   0  0  0  0  0  0  0  0  0  0  0  0
   16.8324  -10.1669   16.7065 C   0  0  0  0  0  0  0  0  0  0  0  0
   16.5687   -9.9590   15.3441 C   0  0  0  0  0  0  0  0  0  0  0  0
   16.1707   -9.4141   17.7324 N   0  0  0  0  0  0  0  0  0  0  0  0
   15.4599   -8.1754   17.5740 C   0  0  0  0  0  0  0  0  0  0  0  0
   15.3706   -7.6398   16.4367 O   0  0  0  0  0  0  0  0  0  0  0  0
   16.2073   -9.7861   18.6431 H   0  0  0  0  0  0  0  0  0  0  0  0
   14.8355   -7.5387   18.7625 C   0  0  0  0  0  0  0  0  0  0  0  0
   15.5988   -7.4490   19.9381 C   0  0  0  0  0  0  0  0  0  0  0  0
   15.0782   -6.8636   21.0933 C   0  0  0  0  0  0  0  0  0  0  0  0
   13.7800   -6.3562   21.0921 C   0  0  0  0  0  0  0  0  0  0  0  0
   13.0034   -6.4345   19.9356 C   0  0  0  0  0  0  0  0  0  0  0  0
   13.5143   -7.0189   18.7714 C   0  0  0  0  0  0  0  0  0  0  0  0
   12.6173   -7.0615   17.5805 C   0  0  0  0  0  0  0  0  0  0  0  0
   16.9389  -10.4708   13.0204 O   0  0  0  0  0  0  0  0  0  0  0  0
   16.8265   -9.1612   12.4789 C   0  0  0  0  0  0  0  0  0  0  0  0
   17.6222   -9.2157    8.3356 N   0  0  0  0  0  0  0  0  0  0  0  0
   17.9974   -9.0835    7.0352 C   0  0  0  0  0  0  0  0  0  0  0  0
   18.9540   -8.0882    6.8485 C   0  0  0  0  0  0  0  0  0  0  0  0
   19.3351   -7.3626    8.3289 S   0  0  0  0  0  0  0  0  0  0  0  0
   18.2611   -8.3517    9.1558 C   0  0  0  0  0  0  0  0  0  0  0  0
   18.0219   -8.3263   10.4898 N   0  0  0  0  0  0  0  0  0  0  0  0
   17.1198   -9.1977   11.0219 C   0  0  0  0  0  0  0  0  0  0  0  0
   16.4344  -10.1011   10.1948 C   0  0  0  0  0  0  0  0  0  0  0  0
   16.7071  -10.0977    8.8227 C   0  0  0  0  0  0  0  0  0  0  0  0
   16.1087  -10.9010    8.0580 O   0  0  0  0  0  0  0  0  0  0  0  0
   19.5522   -7.7156    5.5404 C   0  0  0  0  0  0  0  0  0  0  0  0
 20 21  1  0  0  0
 21 22  2  0  0  0
 22 23  1  0  0  0
 23 24  1  0  0  0
 24 25  2  0  0  0
 25 26  1  0  0  0
 26 19  1  0  0  0
 19 18  1  0  0  0
 18  1  1  0  0  0
  1  2  2  0  0  0
  2  3  1  0  0  0
  3  4  2  0  0  0
  4  5  1  0  0  0
  5  6  2  0  0  0
  5  7  1  0  0  0
  7  8  1  0  0  0
  8  9  2  0  0  0
  8 11  1  0  0  0
 11 12  2  0  0  0
 12 13  1  0  0  0
 13 14  2  0  0  0
 14 15  1  0  0  0
 15 16  2  0  0  0
 16 17  1  0  0  0
 26 27  2  0  0  0
 27 28  1  0  0  0
 28 29  2  0  0  0
 22 30  1  0  0  0
 24 20  1  0  0  0
  6  1  1  0  0  0
 16 11  1  0  0  0
 28 20  1  0  0  0
  7 10  1  0  0  0
M  END
>  <minimizedAffinity>
-8.27230

>  <minimizedRMSD>
1.12035

$$$$
ChemDiv-C679-5592 CHEMBL1553576 MCULE-7315795231 MolPort-007-656-139 PubChem-16009580 ZINC000008603806 ZINC08603806


 32 35  0  0  0  0  0  0  0  0999 V2000
   16.7972  -10.0230   16.6052 C   0  0  0  0  0  0  0  0  0  0  0  0
   16.7341   -9.6256   15.2611 C   0  0  0  0  0  0  0  0  0  0  0  0
   17.4089  -10.3459   14.2706 C   0  0  0  0  0  0  0  0  0  0  0  0
   18.1566  -11.4777   14.6310 C   0  0  0  0  0  0  0  0  0  0  0  0
   18.2247  -11.8786   15.9672 C   0  0  0  0  0  0  0  0  0  0  0  0
   17.5473  -11.1520   16.9500 C   0  0  0  0  0  0  0  0  0  0  0  0
   15.3291   -8.1127   17.4916 C   0  0  0  0  0  0  0  0  0  0  0  0
   15.1754   -7.5840   16.3570 O   0  0  0  0  0  0  0  0  0  0  0  0
   16.1158   -9.3046   17.6426 N   0  0  0  0  0  0  0  0  0  0  0  0
   16.1957   -9.6668   18.5545 H   0  0  0  0  0  0  0  0  0  0  0  0
   13.5047   -6.3226   20.9349 C   0  0  0  0  0  0  0  0  0  0  0  0
   14.7148   -7.0117   21.0555 C   0  0  0  0  0  0  0  0  0  0  0  0
   15.3095   -7.5952   19.9330 C   0  0  0  0  0  0  0  0  0  0  0  0
   14.6984   -7.5001   18.6744 C   0  0  0  0  0  0  0  0  0  0  0  0
   13.4824   -6.8125   18.5547 C   0  0  0  0  0  0  0  0  0  0  0  0
   12.8882   -6.2280   19.6766 C   0  0  0  0  0  0  0  0  0  0  0  0
   12.9320   -5.7549   22.0790 O   0  0  0  0  0  0  0  0  0  0  0  0
   10.9489   -5.0062   23.2305 C   0  0  0  0  0  0  0  0  0  0  0  0
   11.8607   -4.8185   22.0335 C   0  0  0  0  0  0  0  0  0  0  0  0
   17.3243   -9.9140   12.9446 O   0  0  0  0  0  0  0  0  0  0  0  0
   18.3956   -9.2573   12.2802 C   0  0  0  0  0  0  0  0  0  0  0  0
   18.1438   -9.2473   10.8147 C   0  0  0  0  0  0  0  0  0  0  0  0
   17.0234   -9.9121   10.2910 C   0  0  0  0  0  0  0  0  0  0  0  0
   16.7968   -9.8655    8.9115 C   0  0  0  0  0  0  0  0  0  0  0  0
   15.8016  -10.4576    8.4155 O   0  0  0  0  0  0  0  0  0  0  0  0
   17.6662   -9.1741    8.1248 N   0  0  0  0  0  0  0  0  0  0  0  0
   17.5859   -9.0279    6.7755 C   0  0  0  0  0  0  0  0  0  0  0  0
   18.6242   -8.2595    6.2542 C   0  0  0  0  0  0  0  0  0  0  0  0
   18.8004   -7.9289    4.8167 C   0  0  0  0  0  0  0  0  0  0  0  0
   19.6555   -7.7547    7.4967 S   0  0  0  0  0  0  0  0  0  0  0  0
   18.7349   -8.5405    8.6581 C   0  0  0  0  0  0  0  0  0  0  0  0
   18.9863   -8.5647    9.9896 N   0  0  0  0  0  0  0  0  0  0  0  0
 18 19  1  0  0  0
 19 17  1  0  0  0
 17 11  1  0  0  0
 11 12  2  0  0  0
 12 13  1  0  0  0
 13 14  2  0  0  0
 14 15  1  0  0  0
 14  7  1  0  0  0
 15 16  2  0  0  0
 16 11  1  0  0  0
  7  8  2  0  0  0
  7  9  1  0  0  0
  9  1  1  0  0  0
  1  2  2  0  0  0
  2  3  1  0  0  0
  3 20  1  0  0  0
  3  4  2  0  0  0
 20 21  1  0  0  0
 21 22  1  0  0  0
 22 23  2  0  0  0
 23 24  1  0  0  0
 24 25  2  0  0  0
 24 26  1  0  0  0
 26 27  1  0  0  0
 27 28  2  0  0  0
 28 29  1  0  0  0
 28 30  1  0  0  0
 30 31  1  0  0  0
 31 32  2  0  0  0
 31 26  1  0  0  0
 32 22  1  0  0  0
  4  5  1  0  0  0
  5  6  2  0  0  0
  6  1  1  0  0  0
  9 10  1  0  0  0
M  END
>  <minimizedAffinity>
-8.26568

>  <minimizedRMSD>
1.18109

$$$$
ChemDiv-G756-1479 MCULE-7303675106 MolPort-007-879-854 PubChem-46356600 ZINC000021100508 ZINC21100508


 34 37  0  0  0  0  0  0  0  0999 V2000
   17.2810  -10.4704   14.4239 C   0  0  0  0  0  0  0  0  0  0  0  0
   18.0138  -11.5655   14.8912 C   0  0  0  0  0  0  0  0  0  0  0  0
   18.1847  -11.7650   16.2635 C   0  0  0  0  0  0  0  0  0  0  0  0
   17.6226  -10.8682   17.1763 C   0  0  0  0  0  0  0  0  0  0  0  0
   16.8884   -9.7665   16.7255 C   0  0  0  0  0  0  0  0  0  0  0  0
   16.7193   -9.5735   15.3464 C   0  0  0  0  0  0  0  0  0  0  0  0
   16.3206   -8.8723   17.6923 N   0  0  0  0  0  0  0  0  0  0  0  0
   15.0290   -8.2541   17.6333 C   0  0  0  0  0  0  0  0  0  0  0  0
   14.2842   -8.4074   16.6274 O   0  0  0  0  0  0  0  0  0  0  0  0
   14.6136   -7.4150   18.7151 N   0  0  0  0  0  0  0  0  0  0  0  0
   16.8755   -8.6613   18.4777 H   0  0  0  0  0  0  0  0  0  0  0  0
   15.2923   -7.1660   19.3834 H   0  0  0  0  0  0  0  0  0  0  0  0
   13.2852   -6.9091   18.9008 C   0  0  0  0  0  0  0  0  0  0  0  0
   12.1329   -7.6771   18.6153 C   0  0  0  0  0  0  0  0  0  0  0  0
   12.2167   -9.0931   18.1573 C   0  0  0  0  0  0  0  0  0  0  0  0
   10.8639   -7.1311   18.8349 C   0  0  0  0  0  0  0  0  0  0  0  0
   10.7286   -5.8385   19.3460 C   0  0  0  0  0  0  0  0  0  0  0  0
   11.8648   -5.0887   19.6551 C   0  0  0  0  0  0  0  0  0  0  0  0
   11.7221   -3.7200   20.2151 C   0  0  0  0  0  0  0  0  0  0  0  0
   13.1359   -5.6264   19.4403 C   0  0  0  0  0  0  0  0  0  0  0  0
   17.1253  -10.2976   13.0464 O   0  0  0  0  0  0  0  0  0  0  0  0
   16.8146   -9.0395   12.4618 C   0  0  0  0  0  0  0  0  0  0  0  0
   19.1575   -8.4216    4.9584 C   0  0  0  0  0  0  0  0  0  0  0  0
   18.8563   -8.3660    6.4122 C   0  0  0  0  0  0  0  0  0  0  0  0
   17.9257   -9.2429    6.9717 C   0  0  0  0  0  0  0  0  0  0  0  0
   17.6407   -9.2006    8.3075 N   0  0  0  0  0  0  0  0  0  0  0  0
   16.7276  -10.0697    8.8423 C   0  0  0  0  0  0  0  0  0  0  0  0
   16.1382  -10.9184    8.1181 O   0  0  0  0  0  0  0  0  0  0  0  0
   16.4368  -10.0282   10.2049 C   0  0  0  0  0  0  0  0  0  0  0  0
   17.0844   -9.0881   11.0007 C   0  0  0  0  0  0  0  0  0  0  0  0
   17.9913   -8.2429   10.4495 N   0  0  0  0  0  0  0  0  0  0  0  0
   18.2725   -8.2860    9.1216 C   0  0  0  0  0  0  0  0  0  0  0  0
   19.2092   -7.3958    8.5905 C   0  0  0  0  0  0  0  0  0  0  0  0
   19.5003   -7.4385    7.2282 C   0  0  0  0  0  0  0  0  0  0  0  0
 23 24  1  0  0  0
 24 25  2  0  0  0
 25 26  1  0  0  0
 26 27  1  0  0  0
 27 28  2  0  0  0
 27 29  1  0  0  0
 29 30  2  0  0  0
 30 22  1  0  0  0
 30 31  1  0  0  0
 22 21  1  0  0  0
 21  1  1  0  0  0
  1  2  2  0  0  0
  2  3  1  0  0  0
  3  4  2  0  0  0
  4  5  1  0  0  0
  5  7  1  0  0  0
  5  6  2  0  0  0
  7  8  1  0  0  0
  8  9  2  0  0  0
  8 10  1  0  0  0
 10 13  1  0  0  0
 13 14  2  0  0  0
 14 15  1  0  0  0
 14 16  1  0  0  0
 16 17  2  0  0  0
 17 18  1  0  0  0
 18 19  1  0  0  0
 18 20  2  0  0  0
 20 13  1  0  0  0
  6  1  1  0  0  0
 31 32  2  0  0  0
 32 33  1  0  0  0
 32 26  1  0  0  0
 33 34  2  0  0  0
 34 24  1  0  0  0
  7 11  1  0  0  0
 10 12  1  0  0  0
M  END
>  <minimizedAffinity>
-8.26196

>  <minimizedRMSD>
1.02613

$$$$
ChemDiv-G357-3537 MCULE-3123414453 MolPort-007-848-030 PubChem-46343648 ZINC000015772397


 35 38  0  0  0  0  0  0  0  0999 V2000
   17.5680   -9.8041   15.0765 C   0  0  0  0  0  0  0  0  0  0  0  0
   17.6276  -10.3877   16.3495 C   0  0  0  0  0  0  0  0  0  0  0  0
   16.9315   -9.8191   17.4201 C   0  0  0  0  0  0  0  0  0  0  0  0
   16.1668   -8.6633   17.2335 C   0  0  0  0  0  0  0  0  0  0  0  0
   16.1071   -8.0788   15.9597 C   0  0  0  0  0  0  0  0  0  0  0  0
   16.8031   -8.6458   14.8886 C   0  0  0  0  0  0  0  0  0  0  0  0
   15.4696   -8.1093   18.3576 N   0  0  0  0  0  0  0  0  0  0  0  0
   14.2096   -7.4206   18.3369 C   0  0  0  0  0  0  0  0  0  0  0  0
   13.5788   -7.2686   17.2554 O   0  0  0  0  0  0  0  0  0  0  0  0
   15.9005   -8.2119   19.2368 H   0  0  0  0  0  0  0  0  0  0  0  0
   13.6463   -6.8914   19.5917 C   0  0  0  0  0  0  0  0  0  0  0  0
   12.5257   -6.0491   19.5678 C   0  0  0  0  0  0  0  0  0  0  0  0
   11.9920   -5.5492   20.7587 C   0  0  0  0  0  0  0  0  0  0  0  0
   12.5738   -5.8856   21.9913 C   0  0  0  0  0  0  0  0  0  0  0  0
   13.6916   -6.7251   22.0155 C   0  0  0  0  0  0  0  0  0  0  0  0
   14.2247   -7.2255   20.8242 C   0  0  0  0  0  0  0  0  0  0  0  0
   12.0639   -5.4029   23.1998 O   0  0  0  0  0  0  0  0  0  0  0  0
   11.0012   -4.4616   23.2629 C   0  0  0  0  0  0  0  0  0  0  0  0
   18.2995  -10.3978   13.9458 C   0  0  0  0  0  0  0  0  0  0  0  0
   18.9834  -11.4454   14.1154 O   0  0  0  0  0  0  0  0  0  0  0  0
   18.2327   -9.7973   12.6866 O   0  0  0  0  0  0  0  0  0  0  0  0
   17.0172   -9.7175   11.9566 C   0  0  0  0  0  0  0  0  0  0  0  0
   17.8285   -8.9866    7.8841 N   0  0  0  0  0  0  0  0  0  0  0  0
   18.1943   -8.6504    6.6495 N   0  0  0  0  0  0  0  0  0  0  0  0
   19.1881   -7.7291    6.6468 C   0  0  0  0  0  0  0  0  0  0  0  0
   19.6688   -7.3036    8.2184 S   0  0  0  0  0  0  0  0  0  0  0  0
   18.5218   -8.3536    8.8538 C   0  0  0  0  0  0  0  0  0  0  0  0
   18.2796   -8.5810   10.1679 N   0  0  0  0  0  0  0  0  0  0  0  0
   17.3136   -9.4759   10.5200 C   0  0  0  0  0  0  0  0  0  0  0  0
   16.5705  -10.1437    9.5324 C   0  0  0  0  0  0  0  0  0  0  0  0
   16.8522   -9.8822    8.1870 C   0  0  0  0  0  0  0  0  0  0  0  0
   16.2072  -10.4681    7.2775 O   0  0  0  0  0  0  0  0  0  0  0  0
   19.8173   -7.2071    5.4001 C   0  0  0  0  0  0  0  0  0  0  0  0
   19.8503   -8.2769    4.3209 C   0  0  0  0  0  0  0  0  0  0  0  0
   18.8838   -7.9362    3.2020 C   0  0  0  0  0  0  0  0  0  0  0  0
 23 24  1  0  0  0
 24 25  2  0  0  0
 25 26  1  0  0  0
 26 27  1  0  0  0
 27 28  2  0  0  0
 28 29  1  0  0  0
 29 22  1  0  0  0
 22 21  1  0  0  0
 21 19  1  0  0  0
 19 20  2  0  0  0
 19  1  1  0  0  0
  1  2  2  0  0  0
  2  3  1  0  0  0
  3  4  2  0  0  0
  4  5  1  0  0  0
  5  6  2  0  0  0
  4  7  1  0  0  0
  7  8  1  0  0  0
  8  9  2  0  0  0
  8 11  1  0  0  0
 11 12  2  0  0  0
 12 13  1  0  0  0
 13 14  2  0  0  0
 14 15  1  0  0  0
 15 16  2  0  0  0
 14 17  1  0  0  0
 17 18  1  0  0  0
 29 30  2  0  0  0
 30 31  1  0  0  0
 31 32  2  0  0  0
 25 33  1  0  0  0
 33 34  1  0  0  0
 34 35  1  0  0  0
 27 23  1  0  0  0
  6  1  1  0  0  0
 16 11  1  0  0  0
 31 23  1  0  0  0
  7 10  1  0  0  0
M  END
>  <minimizedAffinity>
-8.25397

>  <minimizedRMSD>
1.27113

$$$$
ChemDiv-G357-1503 MCULE-8678649185 MolPort-007-847-548 PubChem-46343400 ZINC000021632501


 31 34  0  0  0  0  0  0  0  0999 V2000
   15.7596   -8.3400   17.0537 C   0  0  0  0  0  0  0  0  0  0  0  0
   15.6258   -8.2501   15.6605 C   0  0  0  0  0  0  0  0  0  0  0  0
   16.2440   -9.1875   14.8292 C   0  0  0  0  0  0  0  0  0  0  0  0
   17.0049  -10.2271   15.3788 C   0  0  0  0  0  0  0  0  0  0  0  0
   17.1383  -10.3173   16.7713 C   0  0  0  0  0  0  0  0  0  0  0  0
   16.5173   -9.3800   17.6020 C   0  0  0  0  0  0  0  0  0  0  0  0
   13.7525   -7.4014   18.3508 C   0  0  0  0  0  0  0  0  0  0  0  0
   12.9554   -8.2683   17.8999 O   0  0  0  0  0  0  0  0  0  0  0  0
   15.1274   -7.4070   17.9395 N   0  0  0  0  0  0  0  0  0  0  0  0
   15.6980   -6.6929   18.3052 H   0  0  0  0  0  0  0  0  0  0  0  0
   14.8237   -7.4820   21.3950 Cl  0  0  0  0  0  0  0  0  0  0  0  0
   13.6415   -6.3833   20.6978 C   0  0  0  0  0  0  0  0  0  0  0  0
   13.2554   -6.4060   19.3321 C   0  0  0  0  0  0  0  0  0  0  0  0
   12.3511   -5.4342   18.8736 C   0  0  0  0  0  0  0  0  0  0  0  0
   11.8283   -4.4717   19.7383 C   0  0  0  0  0  0  0  0  0  0  0  0
   12.2041   -4.4640   21.0799 C   0  0  0  0  0  0  0  0  0  0  0  0
   13.1079   -5.4143   21.5541 C   0  0  0  0  0  0  0  0  0  0  0  0
   17.6524  -11.2125   14.4978 C   0  0  0  0  0  0  0  0  0  0  0  0
   18.1465  -12.2679   14.9830 O   0  0  0  0  0  0  0  0  0  0  0  0
   17.7161  -10.9727   13.1235 O   0  0  0  0  0  0  0  0  0  0  0  0
   18.5353   -9.9507   12.5747 C   0  0  0  0  0  0  0  0  0  0  0  0
   18.0778   -9.6367   11.1956 C   0  0  0  0  0  0  0  0  0  0  0  0
   16.8337  -10.1091   10.7492 C   0  0  0  0  0  0  0  0  0  0  0  0
   16.4112   -9.7739    9.4578 C   0  0  0  0  0  0  0  0  0  0  0  0
   15.3011  -10.1879    9.0290 O   0  0  0  0  0  0  0  0  0  0  0  0
   17.2170   -8.9998    8.6814 N   0  0  0  0  0  0  0  0  0  0  0  0
   16.9551   -8.5811    7.4133 C   0  0  0  0  0  0  0  0  0  0  0  0
   17.9588   -7.7816    6.8544 C   0  0  0  0  0  0  0  0  0  0  0  0
   19.1919   -7.6158    8.0072 S   0  0  0  0  0  0  0  0  0  0  0  0
   18.4022   -8.5529    9.1423 C   0  0  0  0  0  0  0  0  0  0  0  0
   18.8462   -8.8540   10.3871 N   0  0  0  0  0  0  0  0  0  0  0  0
 11 12  1  0  0  0
 12 13  2  0  0  0
 13 14  1  0  0  0
 14 15  2  0  0  0
 15 16  1  0  0  0
 16 17  2  0  0  0
 13  7  1  0  0  0
  7  8  2  0  0  0
  7  9  1  0  0  0
  9  1  1  0  0  0
  1  2  2  0  0  0
  2  3  1  0  0  0
  3  4  2  0  0  0
  4  5  1  0  0  0
  5  6  2  0  0  0
  4 18  1  0  0  0
 18 19  2  0  0  0
 18 20  1  0  0  0
 20 21  1  0  0  0
 21 22  1  0  0  0
 22 23  2  0  0  0
 23 24  1  0  0  0
 24 25  2  0  0  0
 24 26  1  0  0  0
 26 27  1  0  0  0
 27 28  2  0  0  0
 28 29  1  0  0  0
 29 30  1  0  0  0
 30 31  2  0  0  0
 17 12  1  0  0  0
  6  1  1  0  0  0
 31 22  1  0  0  0
 30 26  1  0  0  0
  9 10  1  0  0  0
M  END
>  <minimizedAffinity>
-8.25178

>  <minimizedRMSD>
1.52942

$$$$
ChemDiv-G355-2346 MCULE-1703679425 MolPort-010-840-360 PubChem-52096607 ZINC000041077358


 33 36  0  0  0  0  0  0  0  0999 V2000
   17.4335  -10.3614   14.1789 C   0  0  0  0  0  0  0  0  0  0  0  0
   18.1319  -11.5326   14.5758 C   0  0  0  0  0  0  0  0  0  0  0  0
   18.8746  -12.4081   13.6262 C   0  0  0  0  0  0  0  0  0  0  0  0
   18.1410  -11.9081   15.9227 C   0  0  0  0  0  0  0  0  0  0  0  0
   17.4713  -11.1449   16.8793 C   0  0  0  0  0  0  0  0  0  0  0  0
   16.7807   -9.9929   16.5034 C   0  0  0  0  0  0  0  0  0  0  0  0
   16.7688   -9.6110   15.1557 C   0  0  0  0  0  0  0  0  0  0  0  0
   16.1069   -9.2317   17.5142 N   0  0  0  0  0  0  0  0  0  0  0  0
   15.3514   -8.0288   17.3224 C   0  0  0  0  0  0  0  0  0  0  0  0
   15.2037   -7.5246   16.1778 O   0  0  0  0  0  0  0  0  0  0  0  0
   16.1696   -9.5705   18.4364 H   0  0  0  0  0  0  0  0  0  0  0  0
   14.7653   -7.3386   18.5052 C   0  0  0  0  0  0  0  0  0  0  0  0
   15.2585   -7.9233   19.7051 O   0  0  0  0  0  0  0  0  0  0  0  0
   15.2531   -7.2972   20.9615 C   0  0  0  0  0  0  0  0  0  0  0  0
   16.4618   -6.7507   21.4093 C   0  0  0  0  0  0  0  0  0  0  0  0
   16.5459   -6.1207   22.6525 C   0  0  0  0  0  0  0  0  0  0  0  0
   15.4145   -6.0226   23.4622 C   0  0  0  0  0  0  0  0  0  0  0  0
   14.1968   -6.5453   23.0238 C   0  0  0  0  0  0  0  0  0  0  0  0
   14.1009   -7.1786   21.7802 C   0  0  0  0  0  0  0  0  0  0  0  0
   12.7527   -7.6458   21.3504 C   0  0  0  0  0  0  0  0  0  0  0  0
   17.3552   -9.8859   12.8599 O   0  0  0  0  0  0  0  0  0  0  0  0
   18.3429   -9.1032   12.2046 C   0  0  0  0  0  0  0  0  0  0  0  0
   17.6872   -9.1797    8.0374 N   0  0  0  0  0  0  0  0  0  0  0  0
   17.6264   -9.0820    6.6824 C   0  0  0  0  0  0  0  0  0  0  0  0
   18.6401   -8.2864    6.1532 C   0  0  0  0  0  0  0  0  0  0  0  0
   19.6252   -7.6961    7.3958 S   0  0  0  0  0  0  0  0  0  0  0  0
   18.7174   -8.4829    8.5673 C   0  0  0  0  0  0  0  0  0  0  0  0
   18.9455   -8.4538    9.9032 N   0  0  0  0  0  0  0  0  0  0  0  0
   18.1212   -9.1496   10.7355 C   0  0  0  0  0  0  0  0  0  0  0  0
   17.0382   -9.8756   10.2160 C   0  0  0  0  0  0  0  0  0  0  0  0
   16.8339   -9.8817    8.8320 C   0  0  0  0  0  0  0  0  0  0  0  0
   15.8714  -10.5286    8.3388 O   0  0  0  0  0  0  0  0  0  0  0  0
   18.8291   -7.9963    4.7082 C   0  0  0  0  0  0  0  0  0  0  0  0
 23 24  1  0  0  0
 24 25  2  0  0  0
 25 26  1  0  0  0
 26 27  1  0  0  0
 27 28  2  0  0  0
 28 29  1  0  0  0
 29 22  1  0  0  0
 22 21  1  0  0  0
 21  1  1  0  0  0
  1  2  2  0  0  0
  2  3  1  0  0  0
  2  4  1  0  0  0
  4  5  2  0  0  0
  5  6  1  0  0  0
  6  7  2  0  0  0
  6  8  1  0  0  0
  8  9  1  0  0  0
  9 12  1  0  0  0
 12 13  1  0  0  0
 13 14  1  0  0  0
 14 15  2  0  0  0
 15 16  1  0  0  0
 16 17  2  0  0  0
 17 18  1  0  0  0
 18 19  2  0  0  0
 19 20  1  0  0  0
  9 10  2  0  0  0
 29 30  2  0  0  0
 30 31  1  0  0  0
 31 32  2  0  0  0
 25 33  1  0  0  0
 27 23  1  0  0  0
  7  1  1  0  0  0
 19 14  1  0  0  0
 31 23  1  0  0  0
  8 11  1  0  0  0
M  END
>  <minimizedAffinity>
-8.24242

>  <minimizedRMSD>
1.76952

$$$$
ChemDiv-C679-6226 MCULE-8462262638 MolPort-007-656-238 PubChem-20874389 ZINC000013368495 ZINC13368495


 32 35  0  0  0  0  0  0  0  0999 V2000
   17.4724  -10.1775   14.5262 C   0  0  0  0  0  0  0  0  0  0  0  0
   17.9936  -11.4301   14.8819 C   0  0  0  0  0  0  0  0  0  0  0  0
   17.9414  -11.8633   16.2091 C   0  0  0  0  0  0  0  0  0  0  0  0
   17.3749  -11.0441   17.1889 C   0  0  0  0  0  0  0  0  0  0  0  0
   16.8591   -9.7876   16.8508 C   0  0  0  0  0  0  0  0  0  0  0  0
   16.9083   -9.3622   15.5147 C   0  0  0  0  0  0  0  0  0  0  0  0
   16.2911   -8.9739   17.8868 N   0  0  0  0  0  0  0  0  0  0  0  0
   15.2422   -8.0063   17.7439 C   0  0  0  0  0  0  0  0  0  0  0  0
   14.6923   -7.7991   16.6295 O   0  0  0  0  0  0  0  0  0  0  0  0
   16.6604   -9.0922   18.7917 H   0  0  0  0  0  0  0  0  0  0  0  0
   14.7824   -7.2356   18.9338 C   0  0  0  0  0  0  0  0  0  0  0  0
   15.8914   -6.8669   19.7464 O   0  0  0  0  0  0  0  0  0  0  0  0
   15.8913   -6.9911   21.1408 C   0  0  0  0  0  0  0  0  0  0  0  0
   16.9794   -6.4925   21.8668 C   0  0  0  0  0  0  0  0  0  0  0  0
   17.0017   -6.5919   23.2637 C   0  0  0  0  0  0  0  0  0  0  0  0
   15.9328   -7.1900   23.9413 C   0  0  0  0  0  0  0  0  0  0  0  0
   15.9615   -7.3178   25.6887 Cl  0  0  0  0  0  0  0  0  0  0  0  0
   14.8423   -7.6898   23.2230 C   0  0  0  0  0  0  0  0  0  0  0  0
   14.8192   -7.5913   21.8277 C   0  0  0  0  0  0  0  0  0  0  0  0
   17.5102   -9.7149   13.2078 O   0  0  0  0  0  0  0  0  0  0  0  0
   18.6226   -9.9328   12.3504 C   0  0  0  0  0  0  0  0  0  0  0  0
   19.0249   -6.8832    5.7186 C   0  0  0  0  0  0  0  0  0  0  0  0
   18.7331   -7.5820    6.9996 C   0  0  0  0  0  0  0  0  0  0  0  0
   19.6024   -7.6443    8.0949 C   0  0  0  0  0  0  0  0  0  0  0  0
   18.8505   -8.3976    8.9790 C   0  0  0  0  0  0  0  0  0  0  0  0
   19.1846   -8.7794   10.2369 N   0  0  0  0  0  0  0  0  0  0  0  0
   18.2837   -9.5058   10.9668 C   0  0  0  0  0  0  0  0  0  0  0  0
   17.0305   -9.8519   10.4192 C   0  0  0  0  0  0  0  0  0  0  0  0
   16.7351   -9.4404    9.1126 C   0  0  0  0  0  0  0  0  0  0  0  0
   15.6350   -9.7344    8.5748 O   0  0  0  0  0  0  0  0  0  0  0  0
   17.6699   -8.7237    8.4433 N   0  0  0  0  0  0  0  0  0  0  0  0
   17.6102   -8.2318    7.2472 O   0  0  0  0  0  0  0  0  0  0  0  0
 22 23  1  0  0  0
 23 24  2  0  0  0
 24 25  1  0  0  0
 25 26  2  0  0  0
 26 27  1  0  0  0
 27 21  1  0  0  0
 27 28  2  0  0  0
 21 20  1  0  0  0
 20  1  1  0  0  0
  1  2  2  0  0  0
  2  3  1  0  0  0
  3  4  2  0  0  0
  4  5  1  0  0  0
  5  7  1  0  0  0
  5  6  2  0  0  0
  7  8  1  0  0  0
  8  9  2  0  0  0
  8 11  1  0  0  0
 11 12  1  0  0  0
 12 13  1  0  0  0
 13 14  2  0  0  0
 14 15  1  0  0  0
 15 16  2  0  0  0
 16 17  1  0  0  0
 16 18  1  0  0  0
 18 19  2  0  0  0
 19 13  1  0  0  0
  6  1  1  0  0  0
 28 29  1  0  0  0
 29 30  2  0  0  0
 29 31  1  0  0  0
 31 32  1  0  0  0
 31 25  1  0  0  0
 32 23  1  0  0  0
  7 10  1  0  0  0
M  END
>  <minimizedAffinity>
-8.24236

>  <minimizedRMSD>
1.21227

$$$$
ChemDiv-G756-0141 CHEMBL1552711 MCULE-5731254575 MolPort-007-878-998 PubChem-16030544 ZINC000008619696 ZINC08619696


 32 35  0  0  0  0  0  0  0  0999 V2000
   16.7176   -9.4044   17.1613 C   0  0  0  0  0  0  0  0  0  0  0  0
   16.7688   -9.0859   15.7956 C   0  0  0  0  0  0  0  0  0  0  0  0
   17.3270   -9.9781   14.8748 C   0  0  0  0  0  0  0  0  0  0  0  0
   17.8397  -11.2040   15.3274 C   0  0  0  0  0  0  0  0  0  0  0  0
   17.7913  -11.5279   16.6854 C   0  0  0  0  0  0  0  0  0  0  0  0
   17.2316  -10.6300   17.5980 C   0  0  0  0  0  0  0  0  0  0  0  0
   15.0290   -7.6382   17.9347 C   0  0  0  0  0  0  0  0  0  0  0  0
   14.4299   -7.5783   16.8287 O   0  0  0  0  0  0  0  0  0  0  0  0
   16.1500   -8.5104   18.1283 N   0  0  0  0  0  0  0  0  0  0  0  0
   16.5739   -8.4941   19.0167 H   0  0  0  0  0  0  0  0  0  0  0  0
   14.5561   -6.7927   19.0671 C   0  0  0  0  0  0  0  0  0  0  0  0
   13.5225   -7.4595   19.7856 O   0  0  0  0  0  0  0  0  0  0  0  0
    8.8278   -9.3366   17.4778 F   0  0  0  0  0  0  0  0  0  0  0  0
    9.9714   -8.8719   18.0347 C   0  0  0  0  0  0  0  0  0  0  0  0
   10.4731   -7.6226   17.6599 C   0  0  0  0  0  0  0  0  0  0  0  0
   11.6531   -7.1425   18.2353 C   0  0  0  0  0  0  0  0  0  0  0  0
   12.3397   -7.9116   19.1896 C   0  0  0  0  0  0  0  0  0  0  0  0
   11.8294   -9.1604   19.5610 C   0  0  0  0  0  0  0  0  0  0  0  0
   10.6489   -9.6405   18.9856 C   0  0  0  0  0  0  0  0  0  0  0  0
   17.3600   -9.6230   13.5238 O   0  0  0  0  0  0  0  0  0  0  0  0
   18.3479  -10.1110   12.6258 C   0  0  0  0  0  0  0  0  0  0  0  0
   17.9986   -9.7138   11.2362 C   0  0  0  0  0  0  0  0  0  0  0  0
   16.7889  -10.1182   10.6798 C   0  0  0  0  0  0  0  0  0  0  0  0
   16.4740   -9.7080    9.3852 C   0  0  0  0  0  0  0  0  0  0  0  0
   15.3792  -10.0768    8.8774 O   0  0  0  0  0  0  0  0  0  0  0  0
   17.3441   -8.9160    8.6844 N   0  0  0  0  0  0  0  0  0  0  0  0
   17.0348   -8.5150    7.4151 C   0  0  0  0  0  0  0  0  0  0  0  0
   17.9094   -7.7054    6.6877 C   0  0  0  0  0  0  0  0  0  0  0  0
   19.1108   -7.3039    7.2686 C   0  0  0  0  0  0  0  0  0  0  0  0
   19.4257   -7.7129    8.5631 C   0  0  0  0  0  0  0  0  0  0  0  0
   18.5304   -8.5237    9.2646 C   0  0  0  0  0  0  0  0  0  0  0  0
   18.8398   -8.9210   10.5259 N   0  0  0  0  0  0  0  0  0  0  0  0
 13 14  1  0  0  0
 14 15  2  0  0  0
 15 16  1  0  0  0
 16 17  2  0  0  0
 17 12  1  0  0  0
 12 11  1  0  0  0
 11  7  1  0  0  0
  7  8  2  0  0  0
  7  9  1  0  0  0
  9  1  1  0  0  0
  1  2  2  0  0  0
  2  3  1  0  0  0
  3 20  1  0  0  0
 20 21  1  0  0  0
 21 22  1  0  0  0
 22 23  2  0  0  0
 23 24  1  0  0  0
 24 25  2  0  0  0
 24 26  1  0  0  0
 26 27  1  0  0  0
 27 28  2  0  0  0
 28 29  1  0  0  0
 29 30  2  0  0  0
 30 31  1  0  0  0
 31 32  2  0  0  0
  3  4  2  0  0  0
  4  5  1  0  0  0
  5  6  2  0  0  0
 17 18  1  0  0  0
 18 19  2  0  0  0
 19 14  1  0  0  0
  6  1  1  0  0  0
 32 22  1  0  0  0
 31 26  1  0  0  0
  9 10  1  0  0  0
M  END
>  <minimizedAffinity>
-8.22506

>  <minimizedRMSD>
0.98199

$$$$
ChemDiv-G756-0579 MCULE-4932685663 MolPort-007-879-276 PubChem-22580455 ZINC000021099854 ZINC21099854


 33 36  0  0  0  0  0  0  0  0999 V2000
   16.5844   -9.2923   17.3693 C   0  0  0  0  0  0  0  0  0  0  0  0
   16.6567   -9.0347   15.9918 C   0  0  0  0  0  0  0  0  0  0  0  0
   17.3013   -9.9284   15.1309 C   0  0  0  0  0  0  0  0  0  0  0  0
   17.8812  -11.0938   15.6563 C   0  0  0  0  0  0  0  0  0  0  0  0
   17.8143  -11.3558   17.0269 C   0  0  0  0  0  0  0  0  0  0  0  0
   17.1680  -10.4567   17.8792 C   0  0  0  0  0  0  0  0  0  0  0  0
   14.7559   -7.6150   18.0138 C   0  0  0  0  0  0  0  0  0  0  0  0
   14.1591   -7.6852   16.9070 O   0  0  0  0  0  0  0  0  0  0  0  0
   15.9313   -8.3938   18.2761 N   0  0  0  0  0  0  0  0  0  0  0  0
   16.3309   -8.3021   19.1711 H   0  0  0  0  0  0  0  0  0  0  0  0
   14.2182   -6.7188   19.0725 C   0  0  0  0  0  0  0  0  0  0  0  0
   14.4557   -7.4728   20.7093 S   0  0  0  0  0  0  0  0  0  0  0  0
   10.4813   -3.6993   23.3194 C   0  0  0  0  0  0  0  0  0  0  0  0
   11.4536   -4.6241   22.6808 C   0  0  0  0  0  0  0  0  0  0  0  0
   12.5451   -5.1041   23.4113 C   0  0  0  0  0  0  0  0  0  0  0  0
   13.4598   -5.9746   22.8109 C   0  0  0  0  0  0  0  0  0  0  0  0
   13.2822   -6.3669   21.4798 C   0  0  0  0  0  0  0  0  0  0  0  0
   12.1923   -5.8829   20.7481 C   0  0  0  0  0  0  0  0  0  0  0  0
   11.2778   -5.0125   21.3490 C   0  0  0  0  0  0  0  0  0  0  0  0
   17.3513   -9.6352   13.7657 O   0  0  0  0  0  0  0  0  0  0  0  0
   17.9458  -10.5079   12.8141 C   0  0  0  0  0  0  0  0  0  0  0  0
   17.6279  -10.0376   11.4401 C   0  0  0  0  0  0  0  0  0  0  0  0
   16.3899  -10.3236   10.8750 C   0  0  0  0  0  0  0  0  0  0  0  0
   16.1086   -9.8457    9.5968 C   0  0  0  0  0  0  0  0  0  0  0  0
   14.9872  -10.1084    9.0814 O   0  0  0  0  0  0  0  0  0  0  0  0
   17.0385   -9.1026    8.9190 N   0  0  0  0  0  0  0  0  0  0  0  0
   16.7548   -8.6376    7.6661 C   0  0  0  0  0  0  0  0  0  0  0  0
   17.6839   -7.8765    6.9570 C   0  0  0  0  0  0  0  0  0  0  0  0
   18.9160   -7.5890    7.5379 C   0  0  0  0  0  0  0  0  0  0  0  0
   19.2115   -8.0605    8.8155 C   0  0  0  0  0  0  0  0  0  0  0  0
   20.5376   -7.7402    9.4175 C   0  0  0  0  0  0  0  0  0  0  0  0
   18.2552   -8.8253    9.5052 C   0  0  0  0  0  0  0  0  0  0  0  0
   18.5292   -9.2924   10.7536 N   0  0  0  0  0  0  0  0  0  0  0  0
 13 14  1  0  0  0
 14 15  2  0  0  0
 15 16  1  0  0  0
 16 17  2  0  0  0
 17 12  1  0  0  0
 17 18  1  0  0  0
 12 11  1  0  0  0
 11  7  1  0  0  0
  7  8  2  0  0  0
  7  9  1  0  0  0
  9  1  1  0  0  0
  1  2  2  0  0  0
  2  3  1  0  0  0
  3 20  1  0  0  0
  3  4  2  0  0  0
 20 21  1  0  0  0
 21 22  1  0  0  0
 22 23  2  0  0  0
 23 24  1  0  0  0
 24 25  2  0  0  0
 24 26  1  0  0  0
 26 27  1  0  0  0
 27 28  2  0  0  0
 28 29  1  0  0  0
 29 30  2  0  0  0
 30 31  1  0  0  0
 30 32  1  0  0  0
 32 33  2  0  0  0
 32 26  1  0  0  0
 33 22  1  0  0  0
  4  5  1  0  0  0
  5  6  2  0  0  0
  6  1  1  0  0  0
 18 19  2  0  0  0
 19 14  1  0  0  0
  9 10  1  0  0  0
M  END
>  <minimizedAffinity>
-8.21553

>  <minimizedRMSD>
1.37457

$$$$
ChemDiv-C679-5360 MCULE-8424637713 MolPort-007-656-079 PubChem-20874340 ZINC000020859414 ZINC20859414


 28 31  0  0  0  0  0  0  0  0999 V2000
   16.7682   -9.4104   14.1032 C   0  0  0  0  0  0  0  0  0  0  0  0
   18.0359  -10.0106   14.1608 C   0  0  0  0  0  0  0  0  0  0  0  0
   18.6919  -10.1513   15.3859 C   0  0  0  0  0  0  0  0  0  0  0  0
   18.0863   -9.6938   16.5592 C   0  0  0  0  0  0  0  0  0  0  0  0
   16.8233   -9.0944   16.5170 C   0  0  0  0  0  0  0  0  0  0  0  0
   16.1701   -8.9561   15.2828 C   0  0  0  0  0  0  0  0  0  0  0  0
   16.2354   -8.6377   17.7427 N   0  0  0  0  0  0  0  0  0  0  0  0
   15.0669   -7.8164   17.8819 C   0  0  0  0  0  0  0  0  0  0  0  0
   14.4319   -7.4151   16.8701 O   0  0  0  0  0  0  0  0  0  0  0  0
   16.6798   -8.9168   18.5756 H   0  0  0  0  0  0  0  0  0  0  0  0
   14.6007   -7.4377   19.2196 C   0  0  0  0  0  0  0  0  0  0  0  0
   15.1627   -7.8485   20.4099 C   0  0  0  0  0  0  0  0  0  0  0  0
   14.3955   -7.2436   21.3902 C   0  0  0  0  0  0  0  0  0  0  0  0
   13.4222   -6.5092   20.7343 C   0  0  0  0  0  0  0  0  0  0  0  0
   13.5786   -6.6507   19.4402 O   0  0  0  0  0  0  0  0  0  0  0  0
   16.0851   -9.2535   12.8945 O   0  0  0  0  0  0  0  0  0  0  0  0
   16.0148  -10.2802   11.9138 C   0  0  0  0  0  0  0  0  0  0  0  0
   18.4341   -8.5990    5.9353 C   0  0  0  0  0  0  0  0  0  0  0  0
   18.6900   -8.3952    7.3911 C   0  0  0  0  0  0  0  0  0  0  0  0
   19.7574   -7.6050    7.8283 C   0  0  0  0  0  0  0  0  0  0  0  0
   19.7288   -7.6068    9.5206 S   0  0  0  0  0  0  0  0  0  0  0  0
   18.3841   -8.5959    9.6107 C   0  0  0  0  0  0  0  0  0  0  0  0
   17.7867   -9.0205   10.7508 N   0  0  0  0  0  0  0  0  0  0  0  0
   16.6955   -9.8298   10.6713 C   0  0  0  0  0  0  0  0  0  0  0  0
   16.1864  -10.2062    9.4211 C   0  0  0  0  0  0  0  0  0  0  0  0
   16.8272   -9.7487    8.2647 C   0  0  0  0  0  0  0  0  0  0  0  0
   16.3789  -10.0820    7.1357 O   0  0  0  0  0  0  0  0  0  0  0  0
   17.9274   -8.9447    8.3873 N   0  0  0  0  0  0  0  0  0  0  0  0
 18 19  1  0  0  0
 19 20  2  0  0  0
 20 21  1  0  0  0
 21 22  1  0  0  0
 22 23  2  0  0  0
 23 24  1  0  0  0
 24 17  1  0  0  0
 24 25  2  0  0  0
 17 16  1  0  0  0
 16  1  1  0  0  0
  1  2  2  0  0  0
  2  3  1  0  0  0
  3  4  2  0  0  0
  4  5  1  0  0  0
  5  7  1  0  0  0
  5  6  2  0  0  0
  7  8  1  0  0  0
  8  9  2  0  0  0
  8 11  1  0  0  0
 11 12  2  0  0  0
 12 13  1  0  0  0
 13 14  2  0  0  0
 14 15  1  0  0  0
 15 11  1  0  0  0
  6  1  1  0  0  0
 25 26  1  0  0  0
 26 27  2  0  0  0
 26 28  1  0  0  0
 28 19  1  0  0  0
 28 22  1  0  0  0
  7 10  1  0  0  0
M  END
>  <minimizedAffinity>
-8.21451

>  <minimizedRMSD>
1.27111

$$$$
ChemDiv-C679-5543 MCULE-7268541665 MolPort-007-656-126 PubChem-46258479 ZINC000021369135


 30 33  0  0  0  0  0  0  0  0999 V2000
   17.4186  -10.3403   14.2475 C   0  0  0  0  0  0  0  0  0  0  0  0
   18.1558  -11.4827   14.5963 C   0  0  0  0  0  0  0  0  0  0  0  0
   18.2238  -11.8956   15.9290 C   0  0  0  0  0  0  0  0  0  0  0  0
   17.5563  -11.1707   16.9198 C   0  0  0  0  0  0  0  0  0  0  0  0
   16.8175  -10.0306   16.5867 C   0  0  0  0  0  0  0  0  0  0  0  0
   16.7539   -9.6214   15.2460 C   0  0  0  0  0  0  0  0  0  0  0  0
   16.1471   -9.3135   17.6322 N   0  0  0  0  0  0  0  0  0  0  0  0
   15.3485   -8.1286   17.4893 C   0  0  0  0  0  0  0  0  0  0  0  0
   15.1677   -7.6092   16.3543 O   0  0  0  0  0  0  0  0  0  0  0  0
   16.2448   -9.6714   18.5442 H   0  0  0  0  0  0  0  0  0  0  0  0
   14.7338   -7.5146   18.6797 C   0  0  0  0  0  0  0  0  0  0  0  0
   13.5125   -6.8316   18.5763 C   0  0  0  0  0  0  0  0  0  0  0  0
   12.9303   -6.2492   19.7060 C   0  0  0  0  0  0  0  0  0  0  0  0
   13.5648   -6.3455   20.9473 C   0  0  0  0  0  0  0  0  0  0  0  0
   14.7814   -7.0239   21.0593 C   0  0  0  0  0  0  0  0  0  0  0  0
   15.3636   -7.6062   19.9297 C   0  0  0  0  0  0  0  0  0  0  0  0
   13.0007   -5.7813   22.0418 F   0  0  0  0  0  0  0  0  0  0  0  0
   17.3305   -9.8996   12.9246 O   0  0  0  0  0  0  0  0  0  0  0  0
   18.4013   -9.2401   12.2621 C   0  0  0  0  0  0  0  0  0  0  0  0
   17.6731   -9.1720    8.1064 N   0  0  0  0  0  0  0  0  0  0  0  0
   17.5931   -9.0329    6.7561 C   0  0  0  0  0  0  0  0  0  0  0  0
   18.6283   -8.2624    6.2312 C   0  0  0  0  0  0  0  0  0  0  0  0
   19.6569   -7.7472    7.4719 S   0  0  0  0  0  0  0  0  0  0  0  0
   18.7389   -8.5315    8.6370 C   0  0  0  0  0  0  0  0  0  0  0  0
   18.9904   -8.5496    9.9689 N   0  0  0  0  0  0  0  0  0  0  0  0
   18.1533   -9.2362   10.7962 C   0  0  0  0  0  0  0  0  0  0  0  0
   17.0336   -9.9038   10.2761 C   0  0  0  0  0  0  0  0  0  0  0  0
   16.8060   -9.8625    8.8964 C   0  0  0  0  0  0  0  0  0  0  0  0
   15.8103  -10.4566    8.4026 O   0  0  0  0  0  0  0  0  0  0  0  0
   18.8043   -7.9388    4.7917 C   0  0  0  0  0  0  0  0  0  0  0  0
 20 21  1  0  0  0
 21 22  2  0  0  0
 22 23  1  0  0  0
 23 24  1  0  0  0
 24 25  2  0  0  0
 25 26  1  0  0  0
 26 19  1  0  0  0
 19 18  1  0  0  0
 18  1  1  0  0  0
  1  2  2  0  0  0
  2  3  1  0  0  0
  3  4  2  0  0  0
  4  5  1  0  0  0
  5  6  2  0  0  0
  5  7  1  0  0  0
  7  8  1  0  0  0
  8  9  2  0  0  0
  8 11  1  0  0  0
 11 12  2  0  0  0
 12 13  1  0  0  0
 13 14  2  0  0  0
 14 15  1  0  0  0
 15 16  2  0  0  0
 14 17  1  0  0  0
 26 27  2  0  0  0
 27 28  1  0  0  0
 28 29  2  0  0  0
 22 30  1  0  0  0
 24 20  1  0  0  0
  6  1  1  0  0  0
 16 11  1  0  0  0
 28 20  1  0  0  0
  7 10  1  0  0  0
M  END
>  <minimizedAffinity>
-8.21005

>  <minimizedRMSD>
0.98586

$$$$
ChemDiv-G756-0340 MCULE-5805156301 MolPort-010-744-618 PubChem-50802156 ZINC000033268533 ZINC33268533


 27 29  0  0  0  0  0  0  0  0999 V2000
   16.8315   -9.7925   16.7898 C   0  0  0  0  0  0  0  0  0  0  0  0
   17.3246  -11.0360   17.1853 C   0  0  0  0  0  0  0  0  0  0  0  0
   17.8817  -11.9040   16.2460 C   0  0  0  0  0  0  0  0  0  0  0  0
   17.9556  -11.5438   14.8969 C   0  0  0  0  0  0  0  0  0  0  0  0
   18.5659  -12.5346   13.9664 C   0  0  0  0  0  0  0  0  0  0  0  0
   17.4576  -10.2809   14.4798 C   0  0  0  0  0  0  0  0  0  0  0  0
   16.9027   -9.4263   15.4395 C   0  0  0  0  0  0  0  0  0  0  0  0
   15.2204   -7.9616   17.5868 C   0  0  0  0  0  0  0  0  0  0  0  0
   14.6920   -7.7965   16.4556 O   0  0  0  0  0  0  0  0  0  0  0  0
   16.2657   -8.9265   17.7829 N   0  0  0  0  0  0  0  0  0  0  0  0
   16.6319   -9.0012   18.6937 H   0  0  0  0  0  0  0  0  0  0  0  0
   13.2695   -6.8149   18.5818 C   0  0  0  0  0  0  0  0  0  0  0  0
   14.7438   -7.1349   18.7345 C   0  0  0  0  0  0  0  0  0  0  0  0
   14.9801   -7.8602   20.0451 C   0  0  0  0  0  0  0  0  0  0  0  0
   17.4775   -9.8112   13.1566 O   0  0  0  0  0  0  0  0  0  0  0  0
   18.6447   -9.5146   12.4036 C   0  0  0  0  0  0  0  0  0  0  0  0
   18.2834   -9.3390   10.9724 C   0  0  0  0  0  0  0  0  0  0  0  0
   17.1043   -9.8899   10.4796 C   0  0  0  0  0  0  0  0  0  0  0  0
   16.7759   -9.6869    9.1402 C   0  0  0  0  0  0  0  0  0  0  0  0
   15.7096  -10.1893    8.6902 O   0  0  0  0  0  0  0  0  0  0  0  0
   17.6028   -8.9513    8.3337 N   0  0  0  0  0  0  0  0  0  0  0  0
   17.2800   -8.7528    7.0206 C   0  0  0  0  0  0  0  0  0  0  0  0
   18.1102   -8.0031    6.1855 C   0  0  0  0  0  0  0  0  0  0  0  0
   19.2811   -7.4523    6.7027 C   0  0  0  0  0  0  0  0  0  0  0  0
   19.6101   -7.6548    8.0416 C   0  0  0  0  0  0  0  0  0  0  0  0
   18.7592   -8.4105    8.8516 C   0  0  0  0  0  0  0  0  0  0  0  0
   19.0818   -8.6064   10.1562 N   0  0  0  0  0  0  0  0  0  0  0  0
 12 13  1  0  0  0
 13 14  1  0  0  0
 13  8  1  0  0  0
  8  9  2  0  0  0
  8 10  1  0  0  0
 10  1  1  0  0  0
  1  2  2  0  0  0
  2  3  1  0  0  0
  3  4  2  0  0  0
  4  5  1  0  0  0
  4  6  1  0  0  0
  6 15  1  0  0  0
  6  7  2  0  0  0
 15 16  1  0  0  0
 16 17  1  0  0  0
 17 18  2  0  0  0
 18 19  1  0  0  0
 19 20  2  0  0  0
 19 21  1  0  0  0
 21 22  1  0  0  0
 22 23  2  0  0  0
 23 24  1  0  0  0
 24 25  2  0  0  0
 25 26  1  0  0  0
 26 27  2  0  0  0
 26 21  1  0  0  0
 27 17  1  0  0  0
  7  1  1  0  0  0
 10 11  1  0  0  0
M  END
>  <minimizedAffinity>
-8.19112

>  <minimizedRMSD>
0.82035

$$$$
ChemDiv-C679-4874 MCULE-4489788569 MolPort-007-655-999 PubChem-46258423 ZINC000013368300 ZINC13368300


 32 36  0  0  0  0  0  0  0  0999 V2000
   15.8173   -8.3808   17.1340 C   0  0  0  0  0  0  0  0  0  0  0  0
   15.9392   -8.3564   15.7363 C   0  0  0  0  0  0  0  0  0  0  0  0
   16.7063   -9.3166   15.0694 C   0  0  0  0  0  0  0  0  0  0  0  0
   17.3587  -10.3138   15.8115 C   0  0  0  0  0  0  0  0  0  0  0  0
   17.2408  -10.3447   17.2030 C   0  0  0  0  0  0  0  0  0  0  0  0
   16.4721   -9.3808   17.8605 C   0  0  0  0  0  0  0  0  0  0  0  0
   13.6744   -7.5464   18.2799 C   0  0  0  0  0  0  0  0  0  0  0  0
   13.0321   -8.5999   18.0166 O   0  0  0  0  0  0  0  0  0  0  0  0
   15.0362   -7.4114   17.8462 N   0  0  0  0  0  0  0  0  0  0  0  0
   15.4827   -6.5607   18.0610 H   0  0  0  0  0  0  0  0  0  0  0  0
   14.1086   -7.0021   21.2679 C   0  0  0  0  0  0  0  0  0  0  0  0
   13.1986   -6.1921   20.4084 C   0  0  0  0  0  0  0  0  0  0  0  0
   12.9956   -6.4533   19.0269 C   0  0  0  0  0  0  0  0  0  0  0  0
   12.1006   -5.6345   18.3169 C   0  0  0  0  0  0  0  0  0  0  0  0
   11.4262   -4.5861   18.9445 C   0  0  0  0  0  0  0  0  0  0  0  0
   11.6348   -4.3373   20.2997 C   0  0  0  0  0  0  0  0  0  0  0  0
   12.5160   -5.1381   21.0260 C   0  0  0  0  0  0  0  0  0  0  0  0
   16.8024   -9.2574   13.6769 O   0  0  0  0  0  0  0  0  0  0  0  0
   17.6942  -10.0773   12.9333 C   0  0  0  0  0  0  0  0  0  0  0  0
   17.5853   -9.7481   11.4876 C   0  0  0  0  0  0  0  0  0  0  0  0
   16.4654  -10.1779   10.7569 C   0  0  0  0  0  0  0  0  0  0  0  0
   16.3728   -9.8336    9.4039 C   0  0  0  0  0  0  0  0  0  0  0  0
   15.3825  -10.2058    8.7201 O   0  0  0  0  0  0  0  0  0  0  0  0
   17.3662   -9.0920    8.8467 N   0  0  0  0  0  0  0  0  0  0  0  0
   17.3955   -8.6928    7.5774 N   0  0  0  0  0  0  0  0  0  0  0  0
   18.5064   -7.9678    7.2946 C   0  0  0  0  0  0  0  0  0  0  0  0
   19.4996   -7.7736    8.6601 S   0  0  0  0  0  0  0  0  0  0  0  0
   18.4270   -8.6856    9.5750 C   0  0  0  0  0  0  0  0  0  0  0  0
   18.5524   -8.9976   10.8879 N   0  0  0  0  0  0  0  0  0  0  0  0
   18.7671   -7.3484    5.9609 C   0  0  0  0  0  0  0  0  0  0  0  0
   19.2908   -8.3972    4.9970 C   0  0  0  0  0  0  0  0  0  0  0  0
   20.2488   -7.4212    5.6409 C   0  0  0  0  0  0  0  0  0  0  0  0
 11 12  1  0  0  0
 12 13  2  0  0  0
 13 14  1  0  0  0
 13  7  1  0  0  0
 14 15  2  0  0  0
 15 16  1  0  0  0
 16 17  2  0  0  0
 17 12  1  0  0  0
  7  8  2  0  0  0
  7  9  1  0  0  0
  9  1  1  0  0  0
  1  2  2  0  0  0
  2  3  1  0  0  0
  3 18  1  0  0  0
  3  4  2  0  0  0
 18 19  1  0  0  0
 19 20  1  0  0  0
 20 21  2  0  0  0
 21 22  1  0  0  0
 22 23  2  0  0  0
 22 24  1  0  0  0
 24 25  1  0  0  0
 25 26  2  0  0  0
 26 27  1  0  0  0
 26 30  1  0  0  0
 27 28  1  0  0  0
 28 29  2  0  0  0
 28 24  1  0  0  0
 29 20  1  0  0  0
 30 31  1  0  0  0
 31 32  1  0  0  0
 32 30  1  0  0  0
  4  5  1  0  0  0
  5  6  2  0  0  0
  6  1  1  0  0  0
  9 10  1  0  0  0
M  END
>  <minimizedAffinity>
-8.18795

>  <minimizedRMSD>
1.48878

$$$$
ChemDiv-C679-5379 MCULE-6487014148 MolPort-010-797-218 PubChem-52098568 ZINC000041085726


 32 35  0  0  0  0  0  0  0  0999 V2000
   16.8139   -9.5048   13.9815 C   0  0  0  0  0  0  0  0  0  0  0  0
   18.0617  -10.1472   13.9535 C   0  0  0  0  0  0  0  0  0  0  0  0
   18.7829  -10.3335   15.1352 C   0  0  0  0  0  0  0  0  0  0  0  0
   18.2627   -9.8795   16.3500 C   0  0  0  0  0  0  0  0  0  0  0  0
   17.0211   -9.2371   16.3926 C   0  0  0  0  0  0  0  0  0  0  0  0
   16.3015   -9.0540   15.2019 C   0  0  0  0  0  0  0  0  0  0  0  0
   16.5197   -8.7889   17.6588 N   0  0  0  0  0  0  0  0  0  0  0  0
   15.4493   -7.8615   17.8779 C   0  0  0  0  0  0  0  0  0  0  0  0
   14.8447   -7.3203   16.9146 O   0  0  0  0  0  0  0  0  0  0  0  0
   16.9561   -9.1564   18.4611 H   0  0  0  0  0  0  0  0  0  0  0  0
   15.0258   -7.5535   19.2729 C   0  0  0  0  0  0  0  0  0  0  0  0
   13.7568   -6.9070   19.2722 O   0  0  0  0  0  0  0  0  0  0  0  0
   12.5647   -7.5536   18.9267 C   0  0  0  0  0  0  0  0  0  0  0  0
   11.7814   -7.0232   17.8959 C   0  0  0  0  0  0  0  0  0  0  0  0
   10.5843   -7.6446   17.5272 C   0  0  0  0  0  0  0  0  0  0  0  0
   10.1636   -8.8012   18.1896 C   0  0  0  0  0  0  0  0  0  0  0  0
   10.9386   -9.3360   19.2223 C   0  0  0  0  0  0  0  0  0  0  0  0
   12.1350   -8.7145   19.5911 C   0  0  0  0  0  0  0  0  0  0  0  0
    8.8916   -9.4614   17.7969 C   0  0  0  0  0  0  0  0  0  0  0  0
   16.0666   -9.3029   12.8184 O   0  0  0  0  0  0  0  0  0  0  0  0
   15.9466  -10.2895   11.8020 C   0  0  0  0  0  0  0  0  0  0  0  0
   18.3522   -8.5793    9.5566 C   0  0  0  0  0  0  0  0  0  0  0  0
   19.6916   -7.5807    9.4991 S   0  0  0  0  0  0  0  0  0  0  0  0
   19.7559   -7.5712    7.8077 C   0  0  0  0  0  0  0  0  0  0  0  0
   18.7034   -8.3668    7.3448 C   0  0  0  0  0  0  0  0  0  0  0  0
   18.4796   -8.5660    5.8831 C   0  0  0  0  0  0  0  0  0  0  0  0
   17.9239   -8.9260    8.3224 N   0  0  0  0  0  0  0  0  0  0  0  0
   16.8329   -9.7382    8.1732 C   0  0  0  0  0  0  0  0  0  0  0  0
   16.1709  -10.2047    9.3140 C   0  0  0  0  0  0  0  0  0  0  0  0
   16.6507   -9.8300   10.5759 C   0  0  0  0  0  0  0  0  0  0  0  0
   17.7339   -9.0131   10.6819 N   0  0  0  0  0  0  0  0  0  0  0  0
   16.4126  -10.0720    7.0336 O   0  0  0  0  0  0  0  0  0  0  0  0
 22 23  1  0  0  0
 23 24  1  0  0  0
 24 25  2  0  0  0
 25 26  1  0  0  0
 25 27  1  0  0  0
 27 28  1  0  0  0
 28 29  1  0  0  0
 29 30  2  0  0  0
 30 21  1  0  0  0
 21 20  1  0  0  0
 20  1  1  0  0  0
  1  2  2  0  0  0
  2  3  1  0  0  0
  3  4  2  0  0  0
  4  5  1  0  0  0
  5  6  2  0  0  0
  5  7  1  0  0  0
  7  8  1  0  0  0
  8 11  1  0  0  0
 11 12  1  0  0  0
 12 13  1  0  0  0
 13 14  2  0  0  0
 14 15  1  0  0  0
 15 16  2  0  0  0
 16 17  1  0  0  0
 17 18  2  0  0  0
 16 19  1  0  0  0
  8  9  2  0  0  0
 30 31  1  0  0  0
 28 32  2  0  0  0
 27 22  1  0  0  0
  6  1  1  0  0  0
 18 13  1  0  0  0
 31 22  2  0  0  0
  7 10  1  0  0  0
M  END
>  <minimizedAffinity>
-8.17849

>  <minimizedRMSD>
1.42191

$$$$
ChemDiv-G756-0858 MCULE-7527938519 MolPort-007-879-447 PubChem-46356259 ZINC000033067953 ZINC33067953


 37 41  0  0  0  0  0  0  0  0999 V2000
   18.6028  -12.5094   13.5478 C   0  0  0  0  0  0  0  0  0  0  0  0
   18.1532  -11.5659   14.6093 C   0  0  0  0  0  0  0  0  0  0  0  0
   18.1840  -11.9798   15.9438 C   0  0  0  0  0  0  0  0  0  0  0  0
   17.7669  -11.1153   16.9587 C   0  0  0  0  0  0  0  0  0  0  0  0
   17.3138   -9.8296   16.6510 C   0  0  0  0  0  0  0  0  0  0  0  0
   17.2859   -9.4159   15.3118 C   0  0  0  0  0  0  0  0  0  0  0  0
   17.7036  -10.2762   14.2833 C   0  0  0  0  0  0  0  0  0  0  0  0
   16.8951   -8.9701   17.7200 N   0  0  0  0  0  0  0  0  0  0  0  0
   15.6201   -8.3314   17.8602 C   0  0  0  0  0  0  0  0  0  0  0  0
   14.7136   -8.5110   17.0034 O   0  0  0  0  0  0  0  0  0  0  0  0
   15.3974   -7.4814   18.9924 N   0  0  0  0  0  0  0  0  0  0  0  0
   17.5530   -8.8011   18.4326 H   0  0  0  0  0  0  0  0  0  0  0  0
   16.1702   -7.3192   19.5803 H   0  0  0  0  0  0  0  0  0  0  0  0
   14.1671   -6.8424   19.3586 C   0  0  0  0  0  0  0  0  0  0  0  0
   13.1440   -6.6098   18.4241 C   0  0  0  0  0  0  0  0  0  0  0  0
   11.9495   -5.9972   18.8170 C   0  0  0  0  0  0  0  0  0  0  0  0
   11.7720   -5.6162   20.1487 C   0  0  0  0  0  0  0  0  0  0  0  0
   10.5956   -4.9838   20.5620 O   0  0  0  0  0  0  0  0  0  0  0  0
   10.5185   -4.3411   21.8369 C   0  0  0  0  0  0  0  0  0  0  0  0
   11.2574   -5.1681   22.8927 C   0  0  0  0  0  0  0  0  0  0  0  0
   12.5640   -5.5122   22.4259 O   0  0  0  0  0  0  0  0  0  0  0  0
   12.7780   -5.8679   21.0912 C   0  0  0  0  0  0  0  0  0  0  0  0
   13.9745   -6.4707   20.6947 C   0  0  0  0  0  0  0  0  0  0  0  0
   17.6785   -9.8684   12.9449 O   0  0  0  0  0  0  0  0  0  0  0  0
   16.5302  -10.0103   12.1189 C   0  0  0  0  0  0  0  0  0  0  0  0
   16.8870   -9.6933   10.7111 C   0  0  0  0  0  0  0  0  0  0  0  0
   16.1128  -10.1906    9.6687 C   0  0  0  0  0  0  0  0  0  0  0  0
   16.4827   -9.8964    8.3579 C   0  0  0  0  0  0  0  0  0  0  0  0
   15.7785  -10.3436    7.4113 O   0  0  0  0  0  0  0  0  0  0  0  0
   17.5939   -9.1351    8.1102 N   0  0  0  0  0  0  0  0  0  0  0  0
   17.9513   -8.8533    6.8218 C   0  0  0  0  0  0  0  0  0  0  0  0
   19.0808   -8.0833    6.5434 C   0  0  0  0  0  0  0  0  0  0  0  0
   19.8514   -7.5974    7.5964 C   0  0  0  0  0  0  0  0  0  0  0  0
   19.4921   -7.8813    8.9127 C   0  0  0  0  0  0  0  0  0  0  0  0
   20.3339   -7.3510   10.0242 C   0  0  0  0  0  0  0  0  0  0  0  0
   18.3486   -8.6595    9.1615 C   0  0  0  0  0  0  0  0  0  0  0  0
   17.9861   -8.9463   10.4414 N   0  0  0  0  0  0  0  0  0  0  0  0
  1  2  1  0  0  0
  2  3  2  0  0  0
  3  4  1  0  0  0
  4  5  2  0  0  0
  5  8  1  0  0  0
  5  6  1  0  0  0
  8  9  1  0  0  0
  9 10  2  0  0  0
  9 11  1  0  0  0
 11 14  1  0  0  0
 14 15  2  0  0  0
 15 16  1  0  0  0
 16 17  2  0  0  0
 17 18  1  0  0  0
 18 19  1  0  0  0
 19 20  1  0  0  0
 20 21  1  0  0  0
 21 22  1  0  0  0
 22 23  2  0  0  0
 22 17  1  0  0  0
 23 14  1  0  0  0
  6  7  2  0  0  0
  7 24  1  0  0  0
  7  2  1  0  0  0
 24 25  1  0  0  0
 25 26  1  0  0  0
 26 27  2  0  0  0
 27 28  1  0  0  0
 28 29  2  0  0  0
 28 30  1  0  0  0
 30 31  1  0  0  0
 31 32  2  0  0  0
 32 33  1  0  0  0
 33 34  2  0  0  0
 34 35  1  0  0  0
 34 36  1  0  0  0
 36 37  2  0  0  0
 36 30  1  0  0  0
 37 26  1  0  0  0
  8 12  1  0  0  0
 11 13  1  0  0  0
M  END
>  <minimizedAffinity>
-8.17712

>  <minimizedRMSD>
1.21319

$$$$
ChemDiv-G756-1414 CHEMBL1476071 MCULE-4105349216 MolPort-007-879-816 PubChem-16030449 ZINC000008619621 ZINC08619621


 26 28  0  0  0  0  0  0  0  0999 V2000
   16.8759   -9.2567   12.9558 O   0  0  0  0  0  0  0  0  0  0  0  0
   16.8524   -9.5888   16.6410 C   0  0  0  0  0  0  0  0  0  0  0  0
   16.6433   -9.0884   15.3467 C   0  0  0  0  0  0  0  0  0  0  0  0
   17.1043   -9.7885   14.2274 C   0  0  0  0  0  0  0  0  0  0  0  0
   17.7830  -11.0041   14.4067 C   0  0  0  0  0  0  0  0  0  0  0  0
   17.9949  -11.5078   15.6923 C   0  0  0  0  0  0  0  0  0  0  0  0
   17.5307  -10.8010   16.8047 C   0  0  0  0  0  0  0  0  0  0  0  0
   15.3196   -7.9426   17.8724 C   0  0  0  0  0  0  0  0  0  0  0  0
   14.6470   -7.6463   16.8498 O   0  0  0  0  0  0  0  0  0  0  0  0
   16.3925   -8.8926   17.8074 N   0  0  0  0  0  0  0  0  0  0  0  0
   16.8617   -9.0867   18.6508 H   0  0  0  0  0  0  0  0  0  0  0  0
   13.5490   -7.6333   19.5594 C   0  0  0  0  0  0  0  0  0  0  0  0
   14.9788   -7.3063   19.1747 C   0  0  0  0  0  0  0  0  0  0  0  0
   16.1605   -9.9581   11.9474 C   0  0  0  0  0  0  0  0  0  0  0  0
   16.7443   -9.6492   10.6155 C   0  0  0  0  0  0  0  0  0  0  0  0
   16.2000  -10.2182    9.4681 C   0  0  0  0  0  0  0  0  0  0  0  0
   16.7494   -9.8903    8.2296 C   0  0  0  0  0  0  0  0  0  0  0  0
   16.2603  -10.4085    7.1884 O   0  0  0  0  0  0  0  0  0  0  0  0
   17.8020   -9.0175    8.1541 N   0  0  0  0  0  0  0  0  0  0  0  0
   18.3397   -8.6967    6.9394 C   0  0  0  0  0  0  0  0  0  0  0  0
   19.4107   -7.8066    6.8457 C   0  0  0  0  0  0  0  0  0  0  0  0
   19.9869   -7.4656    5.5192 C   0  0  0  0  0  0  0  0  0  0  0  0
   19.9342   -7.2402    8.0059 C   0  0  0  0  0  0  0  0  0  0  0  0
   19.3853   -7.5679    9.2444 C   0  0  0  0  0  0  0  0  0  0  0  0
   18.3143   -8.4627    9.3065 C   0  0  0  0  0  0  0  0  0  0  0  0
   17.7812   -8.7802   10.5144 N   0  0  0  0  0  0  0  0  0  0  0  0
 12 13  1  0  0  0
 13  8  1  0  0  0
  8  9  2  0  0  0
  8 10  1  0  0  0
 10  2  1  0  0  0
  2  3  2  0  0  0
  3  4  1  0  0  0
  4  1  1  0  0  0
  4  5  2  0  0  0
  1 14  1  0  0  0
 14 15  1  0  0  0
 15 16  2  0  0  0
 16 17  1  0  0  0
 17 18  2  0  0  0
 17 19  1  0  0  0
 19 20  1  0  0  0
 20 21  2  0  0  0
 21 22  1  0  0  0
 21 23  1  0  0  0
 23 24  2  0  0  0
 24 25  1  0  0  0
 25 26  2  0  0  0
 25 19  1  0  0  0
 26 15  1  0  0  0
  5  6  1  0  0  0
  6  7  2  0  0  0
  7  2  1  0  0  0
 10 11  1  0  0  0
M  END
>  <minimizedAffinity>
-8.17092

>  <minimizedRMSD>
1.04405

$$$$
ChemDiv-D439-2928 MCULE-2283842661 MolPort-010-713-995 PubChem-50748736 ZINC000021796928 ZINC21796928


 34 37  0  0  0  0  0  0  0  0999 V2000
   16.7843   -9.2074   16.4883 C   0  0  0  0  0  0  0  0  0  0  0  0
   16.2984   -8.8923   15.2102 C   0  0  0  0  0  0  0  0  0  0  0  0
   16.8813   -9.4484   14.0671 C   0  0  0  0  0  0  0  0  0  0  0  0
   17.9642  -10.3307   14.2062 C   0  0  0  0  0  0  0  0  0  0  0  0
   18.4531  -10.6490   15.4755 C   0  0  0  0  0  0  0  0  0  0  0  0
   17.8638  -10.0882   16.6117 C   0  0  0  0  0  0  0  0  0  0  0  0
   15.0041   -7.8741   17.7704 C   0  0  0  0  0  0  0  0  0  0  0  0
   14.3360   -7.5998   16.7364 O   0  0  0  0  0  0  0  0  0  0  0  0
   16.2062   -8.6542   17.6783 N   0  0  0  0  0  0  0  0  0  0  0  0
   16.6841   -8.8276   18.5214 H   0  0  0  0  0  0  0  0  0  0  0  0
   13.6794   -6.4673   21.5979 C   0  0  0  0  0  0  0  0  0  0  0  0
   14.8705   -7.1906   21.4849 C   0  0  0  0  0  0  0  0  0  0  0  0
   15.3025   -7.6492   20.2372 C   0  0  0  0  0  0  0  0  0  0  0  0
   14.5473   -7.3894   19.0850 C   0  0  0  0  0  0  0  0  0  0  0  0
   13.3529   -6.6638   19.1986 C   0  0  0  0  0  0  0  0  0  0  0  0
   12.9208   -6.2052   20.4460 C   0  0  0  0  0  0  0  0  0  0  0  0
   13.2746   -6.0223   22.8595 O   0  0  0  0  0  0  0  0  0  0  0  0
   12.0774   -4.5904   24.3653 C   0  0  0  0  0  0  0  0  0  0  0  0
   12.0166   -5.4016   23.0881 C   0  0  0  0  0  0  0  0  0  0  0  0
   16.3676   -9.1094   12.8129 O   0  0  0  0  0  0  0  0  0  0  0  0
   16.1515  -10.0693   11.7869 C   0  0  0  0  0  0  0  0  0  0  0  0
   16.8477   -9.6378   10.5462 C   0  0  0  0  0  0  0  0  0  0  0  0
   16.4186  -10.1312    9.2974 C   0  0  0  0  0  0  0  0  0  0  0  0
   17.0716   -9.6898    8.1400 C   0  0  0  0  0  0  0  0  0  0  0  0
   16.7191  -10.1100    7.0066 O   0  0  0  0  0  0  0  0  0  0  0  0
   18.0885   -8.7982    8.2847 N   0  0  0  0  0  0  0  0  0  0  0  0
   18.8585   -8.2256    7.3780 N   0  0  0  0  0  0  0  0  0  0  0  0
   19.7135   -7.4120    8.0465 C   0  0  0  0  0  0  0  0  0  0  0  0
   19.4940   -7.4600    9.3892 N   0  0  0  0  0  0  0  0  0  0  0  0
   18.4747   -8.3367    9.4756 C   0  0  0  0  0  0  0  0  0  0  0  0
   17.8710   -8.7356   10.6216 N   0  0  0  0  0  0  0  0  0  0  0  0
   18.7912   -8.4352    5.9336 C   0  0  0  0  0  0  0  0  0  0  0  0
   17.6382   -7.6517    5.3346 C   0  0  0  0  0  0  0  0  0  0  0  0
   20.0959   -8.0278    5.2747 C   0  0  0  0  0  0  0  0  0  0  0  0
 18 19  1  0  0  0
 19 17  1  0  0  0
 17 11  1  0  0  0
 11 12  2  0  0  0
 12 13  1  0  0  0
 13 14  2  0  0  0
 14 15  1  0  0  0
 14  7  1  0  0  0
 15 16  2  0  0  0
 16 11  1  0  0  0
  7  8  2  0  0  0
  7  9  1  0  0  0
  9  1  1  0  0  0
  1  2  2  0  0  0
  2  3  1  0  0  0
  3 20  1  0  0  0
  3  4  2  0  0  0
 20 21  1  0  0  0
 21 22  1  0  0  0
 22 23  2  0  0  0
 23 24  1  0  0  0
 24 25  2  0  0  0
 24 26  1  0  0  0
 26 27  1  0  0  0
 27 28  1  0  0  0
 27 32  1  0  0  0
 28 29  2  0  0  0
 29 30  1  0  0  0
 30 31  2  0  0  0
 30 26  1  0  0  0
 31 22  1  0  0  0
 32 33  1  0  0  0
 32 34  1  0  0  0
  4  5  1  0  0  0
  5  6  2  0  0  0
  6  1  1  0  0  0
  9 10  1  0  0  0
M  END
>  <minimizedAffinity>
-8.16740

>  <minimizedRMSD>
1.52170

$$$$
ChemDiv-C679-5548 CHEMBL1902069 MCULE-5706815220 MolPort-007-656-131 PubChem-16009568 ZINC000008603793


 30 33  0  0  0  0  0  0  0  0999 V2000
   17.3408  -10.1600   14.2767 C   0  0  0  0  0  0  0  0  0  0  0  0
   17.9965  -11.3696   14.5554 C   0  0  0  0  0  0  0  0  0  0  0  0
   18.0394  -11.8607   15.8624 C   0  0  0  0  0  0  0  0  0  0  0  0
   17.4285  -11.1472   16.8972 C   0  0  0  0  0  0  0  0  0  0  0  0
   16.7721   -9.9404   16.6342 C   0  0  0  0  0  0  0  0  0  0  0  0
   16.7327   -9.4533   15.3188 C   0  0  0  0  0  0  0  0  0  0  0  0
   16.1584   -9.2379   17.7236 N   0  0  0  0  0  0  0  0  0  0  0  0
   15.3270   -8.0688   17.6402 C   0  0  0  0  0  0  0  0  0  0  0  0
   15.0739   -7.5552   16.5184 O   0  0  0  0  0  0  0  0  0  0  0  0
   16.3247   -9.5952   18.6258 H   0  0  0  0  0  0  0  0  0  0  0  0
   14.7776   -7.4787   18.8877 C   0  0  0  0  0  0  0  0  0  0  0  0
   15.6052   -7.4610   20.0226 C   0  0  0  0  0  0  0  0  0  0  0  0
   15.1620   -6.9228   21.2315 C   0  0  0  0  0  0  0  0  0  0  0  0
   13.8775   -6.3908   21.3265 C   0  0  0  0  0  0  0  0  0  0  0  0
   13.0380   -6.3981   20.2126 C   0  0  0  0  0  0  0  0  0  0  0  0
   13.4701   -6.9347   18.9948 C   0  0  0  0  0  0  0  0  0  0  0  0
   12.3213   -6.8880   17.6637 Cl  0  0  0  0  0  0  0  0  0  0  0  0
   17.2792   -9.6404   12.9813 O   0  0  0  0  0  0  0  0  0  0  0  0
   18.4298   -9.1869   12.2803 C   0  0  0  0  0  0  0  0  0  0  0  0
   17.6421   -9.1800    8.1351 N   0  0  0  0  0  0  0  0  0  0  0  0
   17.5432   -9.0613    6.7839 C   0  0  0  0  0  0  0  0  0  0  0  0
   18.5727   -8.3018    6.2326 C   0  0  0  0  0  0  0  0  0  0  0  0
   19.6203   -7.7704    7.4506 S   0  0  0  0  0  0  0  0  0  0  0  0
   18.7169   -8.5343    8.6405 C   0  0  0  0  0  0  0  0  0  0  0  0
   18.9873   -8.5326    9.9688 N   0  0  0  0  0  0  0  0  0  0  0  0
   18.1612   -9.2049   10.8183 C   0  0  0  0  0  0  0  0  0  0  0  0
   17.0328   -9.8779   10.3245 C   0  0  0  0  0  0  0  0  0  0  0  0
   16.7852   -9.8567    8.9477 C   0  0  0  0  0  0  0  0  0  0  0  0
   15.7815  -10.4562    8.4772 O   0  0  0  0  0  0  0  0  0  0  0  0
   18.7286   -8.0002    4.7861 C   0  0  0  0  0  0  0  0  0  0  0  0
 20 21  1  0  0  0
 21 22  2  0  0  0
 22 23  1  0  0  0
 23 24  1  0  0  0
 24 25  2  0  0  0
 25 26  1  0  0  0
 26 19  1  0  0  0
 19 18  1  0  0  0
 18  1  1  0  0  0
  1  2  2  0  0  0
  2  3  1  0  0  0
  3  4  2  0  0  0
  4  5  1  0  0  0
  5  6  2  0  0  0
  5  7  1  0  0  0
  7  8  1  0  0  0
  8  9  2  0  0  0
  8 11  1  0  0  0
 11 12  2  0  0  0
 12 13  1  0  0  0
 13 14  2  0  0  0
 14 15  1  0  0  0
 15 16  2  0  0  0
 16 17  1  0  0  0
 26 27  2  0  0  0
 27 28  1  0  0  0
 28 29  2  0  0  0
 22 30  1  0  0  0
 24 20  1  0  0  0
  6  1  1  0  0  0
 16 11  1  0  0  0
 28 20  1  0  0  0
  7 10  1  0  0  0
M  END
>  <minimizedAffinity>
-8.16256

>  <minimizedRMSD>
1.13629

$$$$
ChemDiv-G357-4009 MCULE-2785172752 MolPort-007-848-114 PubChem-46343684 ZINC000015772507


 36 39  0  0  0  0  0  0  0  0999 V2000
   17.6937  -10.6884   13.6285 C   0  0  0  0  0  0  0  0  0  0  0  0
   18.0306  -11.9033   13.6952 O   0  0  0  0  0  0  0  0  0  0  0  0
   17.1877   -9.9963   14.8249 C   0  0  0  0  0  0  0  0  0  0  0  0
   17.3178  -10.5761   16.0947 C   0  0  0  0  0  0  0  0  0  0  0  0
   16.8328   -9.9136   17.2263 C   0  0  0  0  0  0  0  0  0  0  0  0
   16.2146   -8.6651   17.1053 C   0  0  0  0  0  0  0  0  0  0  0  0
   16.0831   -8.0858   15.8343 C   0  0  0  0  0  0  0  0  0  0  0  0
   16.5663   -8.7471   14.7022 C   0  0  0  0  0  0  0  0  0  0  0  0
   15.7316   -8.0173   18.2901 N   0  0  0  0  0  0  0  0  0  0  0  0
   14.3842   -7.5937   18.5563 C   0  0  0  0  0  0  0  0  0  0  0  0
   13.4836   -7.7739   17.6930 O   0  0  0  0  0  0  0  0  0  0  0  0
   16.3943   -7.8440   18.9972 H   0  0  0  0  0  0  0  0  0  0  0  0
   14.0706   -6.9383   19.8530 C   0  0  0  0  0  0  0  0  0  0  0  0
   14.7668   -7.3695   20.9949 C   0  0  0  0  0  0  0  0  0  0  0  0
   14.5261   -6.7974   22.2456 C   0  0  0  0  0  0  0  0  0  0  0  0
   13.5821   -5.7801   22.3753 C   0  0  0  0  0  0  0  0  0  0  0  0
   12.8793   -5.3358   21.2550 C   0  0  0  0  0  0  0  0  0  0  0  0
   13.1111   -5.9014   19.9965 C   0  0  0  0  0  0  0  0  0  0  0  0
   12.3121   -5.3702   18.8529 C   0  0  0  0  0  0  0  0  0  0  0  0
   17.7948   -9.9954   12.4202 O   0  0  0  0  0  0  0  0  0  0  0  0
   16.6673   -9.7669   11.5877 C   0  0  0  0  0  0  0  0  0  0  0  0
   17.9240   -8.9074    7.6557 N   0  0  0  0  0  0  0  0  0  0  0  0
   18.4238   -8.5320    6.4805 N   0  0  0  0  0  0  0  0  0  0  0  0
   19.3995   -7.6015    6.6174 C   0  0  0  0  0  0  0  0  0  0  0  0
   19.6934   -7.2180    8.2450 S   0  0  0  0  0  0  0  0  0  0  0  0
   18.4949   -8.2968    8.7152 C   0  0  0  0  0  0  0  0  0  0  0  0
   18.1096   -8.5671    9.9859 N   0  0  0  0  0  0  0  0  0  0  0  0
   17.1224   -9.4823   10.2014 C   0  0  0  0  0  0  0  0  0  0  0  0
   16.5031  -10.1267    9.1172 C   0  0  0  0  0  0  0  0  0  0  0  0
   16.9311   -9.8215    7.8206 C   0  0  0  0  0  0  0  0  0  0  0  0
   16.3998  -10.3857    6.8274 O   0  0  0  0  0  0  0  0  0  0  0  0
   20.1640   -7.0417    5.4676 C   0  0  0  0  0  0  0  0  0  0  0  0
   19.7786   -7.7421    4.1760 C   0  0  0  0  0  0  0  0  0  0  0  0
   20.4211   -7.1372    3.0942 O   0  0  0  0  0  0  0  0  0  0  0  0
   19.3852   -6.6499    2.2957 C   0  0  0  0  0  0  0  0  0  0  0  0
   19.6194   -5.1812    2.0085 C   0  0  0  0  0  0  0  0  0  0  0  0
 22 23  1  0  0  0
 23 24  2  0  0  0
 24 25  1  0  0  0
 25 26  1  0  0  0
 26 27  2  0  0  0
 27 28  1  0  0  0
 28 21  1  0  0  0
 21 20  1  0  0  0
 20  1  1  0  0  0
  1  2  2  0  0  0
  1  3  1  0  0  0
  3  4  2  0  0  0
  4  5  1  0  0  0
  5  6  2  0  0  0
  6  7  1  0  0  0
  7  8  2  0  0  0
  6  9  1  0  0  0
  9 10  1  0  0  0
 10 11  2  0  0  0
 10 13  1  0  0  0
 13 14  2  0  0  0
 14 15  1  0  0  0
 15 16  2  0  0  0
 16 17  1  0  0  0
 17 18  2  0  0  0
 18 19  1  0  0  0
 28 29  2  0  0  0
 29 30  1  0  0  0
 30 31  2  0  0  0
 24 32  1  0  0  0
 32 33  1  0  0  0
 33 34  1  0  0  0
 34 35  1  0  0  0
 35 36  1  0  0  0
 26 22  1  0  0  0
  8  3  1  0  0  0
 18 13  1  0  0  0
 30 22  1  0  0  0
  9 12  1  0  0  0
M  END
>  <minimizedAffinity>
-8.15922

>  <minimizedRMSD>
1.39256

$$$$
ChemDiv-C679-4726 MCULE-6559255274 MolPort-007-655-981 PubChem-46258412 ZINC000013368281


 34 37  0  0  0  0  0  0  0  0999 V2000
   16.9815   -9.2492   14.2203 C   0  0  0  0  0  0  0  0  0  0  0  0
   18.2066   -9.9194   14.3585 C   0  0  0  0  0  0  0  0  0  0  0  0
   18.7411  -10.1531   15.6278 C   0  0  0  0  0  0  0  0  0  0  0  0
   18.0575   -9.7157   16.7650 C   0  0  0  0  0  0  0  0  0  0  0  0
   16.8377   -9.0430   16.6426 C   0  0  0  0  0  0  0  0  0  0  0  0
   16.3047   -8.8145   15.3645 C   0  0  0  0  0  0  0  0  0  0  0  0
   16.1802   -8.5875   17.8326 N   0  0  0  0  0  0  0  0  0  0  0  0
   14.9998   -7.7730   17.9092 C   0  0  0  0  0  0  0  0  0  0  0  0
   14.3899   -7.4264   16.8612 O   0  0  0  0  0  0  0  0  0  0  0  0
   16.5808   -8.8625   18.6888 H   0  0  0  0  0  0  0  0  0  0  0  0
   14.4959   -7.3411   19.2252 C   0  0  0  0  0  0  0  0  0  0  0  0
   13.3813   -6.4946   19.3166 C   0  0  0  0  0  0  0  0  0  0  0  0
   12.9052   -6.0869   20.5664 C   0  0  0  0  0  0  0  0  0  0  0  0
   13.5357   -6.5260   21.7418 C   0  0  0  0  0  0  0  0  0  0  0  0
   14.6489   -7.3674   21.6510 C   0  0  0  0  0  0  0  0  0  0  0  0
   15.1269   -7.7719   20.4008 C   0  0  0  0  0  0  0  0  0  0  0  0
   13.0823   -6.1403   23.0063 O   0  0  0  0  0  0  0  0  0  0  0  0
   12.2229   -5.0249   23.2058 C   0  0  0  0  0  0  0  0  0  0  0  0
   16.4210   -8.9985   12.9655 O   0  0  0  0  0  0  0  0  0  0  0  0
   16.1190  -10.0340   12.0391 C   0  0  0  0  0  0  0  0  0  0  0  0
   17.7133   -9.1149    8.2436 N   0  0  0  0  0  0  0  0  0  0  0  0
   18.3240   -8.7359    7.1231 N   0  0  0  0  0  0  0  0  0  0  0  0
   19.3507   -7.8840    7.3669 C   0  0  0  0  0  0  0  0  0  0  0  0
   19.5302   -7.5559    9.0227 S   0  0  0  0  0  0  0  0  0  0  0  0
   18.2373   -8.5735    9.3642 C   0  0  0  0  0  0  0  0  0  0  0  0
   17.7362   -8.8521   10.5924 N   0  0  0  0  0  0  0  0  0  0  0  0
   16.6680   -9.6935   10.6993 C   0  0  0  0  0  0  0  0  0  0  0  0
   16.1033  -10.2724    9.5504 C   0  0  0  0  0  0  0  0  0  0  0  0
   16.6520   -9.9620    8.3009 C   0  0  0  0  0  0  0  0  0  0  0  0
   16.1674  -10.4647    7.2518 O   0  0  0  0  0  0  0  0  0  0  0  0
   20.1919   -7.2828    6.2944 C   0  0  0  0  0  0  0  0  0  0  0  0
   19.4657   -7.3115    4.9572 C   0  0  0  0  0  0  0  0  0  0  0  0
   19.7614   -8.5944    4.1960 C   0  0  0  0  0  0  0  0  0  0  0  0
   20.2554   -8.2773    2.7963 C   0  0  0  0  0  0  0  0  0  0  0  0
 21 22  1  0  0  0
 22 23  2  0  0  0
 23 24  1  0  0  0
 24 25  1  0  0  0
 25 26  2  0  0  0
 26 27  1  0  0  0
 27 20  1  0  0  0
 20 19  1  0  0  0
 19  1  1  0  0  0
  1  2  2  0  0  0
  2  3  1  0  0  0
  3  4  2  0  0  0
  4  5  1  0  0  0
  5  6  2  0  0  0
  5  7  1  0  0  0
  7  8  1  0  0  0
  8  9  2  0  0  0
  8 11  1  0  0  0
 11 12  2  0  0  0
 12 13  1  0  0  0
 13 14  2  0  0  0
 14 15  1  0  0  0
 15 16  2  0  0  0
 14 17  1  0  0  0
 17 18  1  0  0  0
 27 28  2  0  0  0
 28 29  1  0  0  0
 29 30  2  0  0  0
 23 31  1  0  0  0
 31 32  1  0  0  0
 32 33  1  0  0  0
 33 34  1  0  0  0
 25 21  1  0  0  0
  6  1  1  0  0  0
 16 11  1  0  0  0
 29 21  1  0  0  0
  7 10  1  0  0  0
M  END
>  <minimizedAffinity>
-8.14152

>  <minimizedRMSD>
1.97198

$$$$
ChemDiv-G756-0859 MCULE-3557055506 MolPort-007-879-448 PubChem-46356260 ZINC000033067954 ZINC33067954


 35 38  0  0  0  0  0  0  0  0999 V2000
   18.5171  -12.5189   13.8121 C   0  0  0  0  0  0  0  0  0  0  0  0
   18.0510  -11.4748   14.7666 C   0  0  0  0  0  0  0  0  0  0  0  0
   18.0344  -11.7633   16.1337 C   0  0  0  0  0  0  0  0  0  0  0  0
   17.6010  -10.8027   17.0504 C   0  0  0  0  0  0  0  0  0  0  0  0
   17.1816   -9.5440   16.6113 C   0  0  0  0  0  0  0  0  0  0  0  0
   17.1981   -9.2569   15.2391 C   0  0  0  0  0  0  0  0  0  0  0  0
   17.6317  -10.2152   14.3086 C   0  0  0  0  0  0  0  0  0  0  0  0
   16.7378   -8.5865   17.5824 N   0  0  0  0  0  0  0  0  0  0  0  0
   15.3828   -8.2174   17.8687 C   0  0  0  0  0  0  0  0  0  0  0  0
   14.4276   -8.7229   17.2199 O   0  0  0  0  0  0  0  0  0  0  0  0
   15.1360   -7.2645   18.9098 N   0  0  0  0  0  0  0  0  0  0  0  0
   17.4375   -8.1352   18.1077 H   0  0  0  0  0  0  0  0  0  0  0  0
   15.9209   -6.9536   19.4163 H   0  0  0  0  0  0  0  0  0  0  0  0
   13.8664   -6.7147   19.2932 C   0  0  0  0  0  0  0  0  0  0  0  0
   13.6238   -6.4364   20.6470 C   0  0  0  0  0  0  0  0  0  0  0  0
   14.5734   -6.6932   21.5804 F   0  0  0  0  0  0  0  0  0  0  0  0
   12.3984   -5.8935   21.0461 C   0  0  0  0  0  0  0  0  0  0  0  0
   11.4092   -5.6218   20.0978 C   0  0  0  0  0  0  0  0  0  0  0  0
   10.2230   -5.0970   20.4872 F   0  0  0  0  0  0  0  0  0  0  0  0
   11.6430   -5.8944   18.7479 C   0  0  0  0  0  0  0  0  0  0  0  0
   12.8665   -6.4378   18.3474 C   0  0  0  0  0  0  0  0  0  0  0  0
   17.6518   -9.9348   12.9380 O   0  0  0  0  0  0  0  0  0  0  0  0
   16.5057  -10.0685   12.1075 C   0  0  0  0  0  0  0  0  0  0  0  0
   16.8651   -9.7269   10.7064 C   0  0  0  0  0  0  0  0  0  0  0  0
   16.1019  -10.2172    9.6522 C   0  0  0  0  0  0  0  0  0  0  0  0
   16.4819   -9.9092    8.3478 C   0  0  0  0  0  0  0  0  0  0  0  0
   15.7874  -10.3495    7.3908 O   0  0  0  0  0  0  0  0  0  0  0  0
   17.5925   -9.1415    8.1173 N   0  0  0  0  0  0  0  0  0  0  0  0
   17.9588   -8.8457    6.8347 C   0  0  0  0  0  0  0  0  0  0  0  0
   19.0864   -8.0679    6.5729 C   0  0  0  0  0  0  0  0  0  0  0  0
   19.8465   -7.5892    7.6366 C   0  0  0  0  0  0  0  0  0  0  0  0
   19.4786   -7.8875    8.9475 C   0  0  0  0  0  0  0  0  0  0  0  0
   20.3083   -7.3642   10.0705 C   0  0  0  0  0  0  0  0  0  0  0  0
   18.3369   -8.6737    9.1795 C   0  0  0  0  0  0  0  0  0  0  0  0
   17.9653   -8.9755   10.4535 N   0  0  0  0  0  0  0  0  0  0  0  0
  1  2  1  0  0  0
  2  3  2  0  0  0
  3  4  1  0  0  0
  4  5  2  0  0  0
  5  8  1  0  0  0
  5  6  1  0  0  0
  8  9  1  0  0  0
  9 10  2  0  0  0
  9 11  1  0  0  0
 11 14  1  0  0  0
 14 15  2  0  0  0
 15 16  1  0  0  0
 15 17  1  0  0  0
 17 18  2  0  0  0
 18 19  1  0  0  0
 18 20  1  0  0  0
 20 21  2  0  0  0
 21 14  1  0  0  0
  6  7  2  0  0  0
  7 22  1  0  0  0
  7  2  1  0  0  0
 22 23  1  0  0  0
 23 24  1  0  0  0
 24 25  2  0  0  0
 25 26  1  0  0  0
 26 27  2  0  0  0
 26 28  1  0  0  0
 28 29  1  0  0  0
 29 30  2  0  0  0
 30 31  1  0  0  0
 31 32  2  0  0  0
 32 33  1  0  0  0
 32 34  1  0  0  0
 34 35  2  0  0  0
 34 28  1  0  0  0
 35 24  1  0  0  0
  8 12  1  0  0  0
 11 13  1  0  0  0
M  END
>  <minimizedAffinity>
-8.13533

>  <minimizedRMSD>
1.27612

$$$$
ChemDiv-G357-1551 MCULE-4693879015 MolPort-007-847-580 PubChem-46343423 ZINC000021016923 ZINC21016923


 36 39  0  0  0  0  0  0  0  0999 V2000
   16.2332   -8.6704   16.8964 C   0  0  0  0  0  0  0  0  0  0  0  0
   16.8640   -9.9183   16.8780 C   0  0  0  0  0  0  0  0  0  0  0  0
   17.2753  -10.4857   15.6686 C   0  0  0  0  0  0  0  0  0  0  0  0
   17.0604   -9.8091   14.4598 C   0  0  0  0  0  0  0  0  0  0  0  0
   16.4301   -8.5582   14.4773 C   0  0  0  0  0  0  0  0  0  0  0  0
   16.0191   -7.9925   15.6872 C   0  0  0  0  0  0  0  0  0  0  0  0
   14.5361   -7.5842   18.4873 C   0  0  0  0  0  0  0  0  0  0  0  0
   13.6092   -7.5675   17.6319 O   0  0  0  0  0  0  0  0  0  0  0  0
   15.8259   -8.1224   18.1574 N   0  0  0  0  0  0  0  0  0  0  0  0
   16.5022   -8.1144   18.8729 H   0  0  0  0  0  0  0  0  0  0  0  0
   14.7978   -7.0368   22.2231 C   0  0  0  0  0  0  0  0  0  0  0  0
   15.0139   -7.5329   20.9292 C   0  0  0  0  0  0  0  0  0  0  0  0
   14.2928   -7.0491   19.8385 C   0  0  0  0  0  0  0  0  0  0  0  0
   13.3386   -6.0524   20.0450 C   0  0  0  0  0  0  0  0  0  0  0  0
   13.0916   -5.5326   21.3176 C   0  0  0  0  0  0  0  0  0  0  0  0
   13.8252   -6.0220   22.4320 C   0  0  0  0  0  0  0  0  0  0  0  0
   16.7290   -6.9284   23.7780 C   0  0  0  0  0  0  0  0  0  0  0  0
   15.5430   -7.5454   23.2940 O   0  0  0  0  0  0  0  0  0  0  0  0
   12.1079   -4.5342   21.4041 O   0  0  0  0  0  0  0  0  0  0  0  0
   10.7547   -4.7457   21.7804 C   0  0  0  0  0  0  0  0  0  0  0  0
   13.5632   -5.4823   23.7033 O   0  0  0  0  0  0  0  0  0  0  0  0
   14.1025   -4.2711   24.2140 C   0  0  0  0  0  0  0  0  0  0  0  0
   17.4895  -10.4019   13.1830 C   0  0  0  0  0  0  0  0  0  0  0  0
   17.9518  -11.5762   13.1547 O   0  0  0  0  0  0  0  0  0  0  0  0
   17.3818   -9.6597   12.0048 O   0  0  0  0  0  0  0  0  0  0  0  0
   18.4854   -8.9528   11.4582 C   0  0  0  0  0  0  0  0  0  0  0  0
   18.3733   -8.9251    9.9760 C   0  0  0  0  0  0  0  0  0  0  0  0
   17.3618   -9.6610    9.3387 C   0  0  0  0  0  0  0  0  0  0  0  0
   17.2600   -9.5966    7.9445 C   0  0  0  0  0  0  0  0  0  0  0  0
   16.3647  -10.2509    7.3454 O   0  0  0  0  0  0  0  0  0  0  0  0
   18.1393   -8.8184    7.2558 N   0  0  0  0  0  0  0  0  0  0  0  0
   18.1767   -8.6442    5.9068 C   0  0  0  0  0  0  0  0  0  0  0  0
   19.1877   -7.7815    5.4676 C   0  0  0  0  0  0  0  0  0  0  0  0
   20.0381   -7.2405    6.8323 S   0  0  0  0  0  0  0  0  0  0  0  0
   19.0943   -8.1162    7.8973 C   0  0  0  0  0  0  0  0  0  0  0  0
   19.2260   -8.1524    9.2457 N   0  0  0  0  0  0  0  0  0  0  0  0
 17 18  1  0  0  0
 18 11  1  0  0  0
 11 12  2  0  0  0
 12 13  1  0  0  0
 13 14  2  0  0  0
 13  7  1  0  0  0
 14 15  1  0  0  0
 15 19  1  0  0  0
 15 16  2  0  0  0
 19 20  1  0  0  0
 16 21  1  0  0  0
 16 11  1  0  0  0
 21 22  1  0  0  0
  7  8  2  0  0  0
  7  9  1  0  0  0
  9  1  1  0  0  0
  1  2  2  0  0  0
  2  3  1  0  0  0
  3  4  2  0  0  0
  4  5  1  0  0  0
  4 23  1  0  0  0
  5  6  2  0  0  0
  6  1  1  0  0  0
 23 24  2  0  0  0
 23 25  1  0  0  0
 25 26  1  0  0  0
 26 27  1  0  0  0
 27 28  2  0  0  0
 28 29  1  0  0  0
 29 30  2  0  0  0
 29 31  1  0  0  0
 31 32  1  0  0  0
 32 33  2  0  0  0
 33 34  1  0  0  0
 34 35  1  0  0  0
 35 36  2  0  0  0
 35 31  1  0  0  0
 36 27  1  0  0  0
  9 10  1  0  0  0
M  END
>  <minimizedAffinity>
-8.13410

>  <minimizedRMSD>
1.31073

$$$$
ChemDiv-C679-6200 MCULE-2991109911 MolPort-007-656-218 PubChem-20874375 ZINC000013368455 ZINC13368455


 28 31  0  0  0  0  0  0  0  0999 V2000
   17.4400  -10.3167   14.2310 C   0  0  0  0  0  0  0  0  0  0  0  0
   18.1536  -11.4797   14.5599 C   0  0  0  0  0  0  0  0  0  0  0  0
   18.2117  -11.9178   15.8850 C   0  0  0  0  0  0  0  0  0  0  0  0
   17.5582  -11.1974   16.8880 C   0  0  0  0  0  0  0  0  0  0  0  0
   16.8440  -10.0363   16.5750 C   0  0  0  0  0  0  0  0  0  0  0  0
   16.7895   -9.6021   15.2418 C   0  0  0  0  0  0  0  0  0  0  0  0
   16.1865   -9.3250   17.6324 N   0  0  0  0  0  0  0  0  0  0  0  0
   15.3747   -8.1490   17.5028 C   0  0  0  0  0  0  0  0  0  0  0  0
   15.1803   -7.6175   16.3769 O   0  0  0  0  0  0  0  0  0  0  0  0
   16.3045   -9.6809   18.5427 H   0  0  0  0  0  0  0  0  0  0  0  0
   14.7658   -7.5549   18.6981 C   0  0  0  0  0  0  0  0  0  0  0  0
   15.3064   -7.5713   19.9745 C   0  0  0  0  0  0  0  0  0  0  0  0
   14.4948   -6.9214   20.9157 C   0  0  0  0  0  0  0  0  0  0  0  0
   13.3173   -6.3903   20.3932 C   0  0  0  0  0  0  0  0  0  0  0  0
   13.3003   -6.7409   18.7480 S   0  0  0  0  0  0  0  0  0  0  0  0
   17.3611   -9.8516   12.9159 O   0  0  0  0  0  0  0  0  0  0  0  0
   18.4743   -9.2906   12.2325 C   0  0  0  0  0  0  0  0  0  0  0  0
   18.9442   -7.7225    5.1147 C   0  0  0  0  0  0  0  0  0  0  0  0
   18.6590   -8.1644    6.5050 C   0  0  0  0  0  0  0  0  0  0  0  0
   19.4372   -7.8483    7.6239 C   0  0  0  0  0  0  0  0  0  0  0  0
   18.7343   -8.4984    8.6202 C   0  0  0  0  0  0  0  0  0  0  0  0
   19.0208   -8.5430    9.9445 N   0  0  0  0  0  0  0  0  0  0  0  0
   18.1945   -9.2485   10.7732 C   0  0  0  0  0  0  0  0  0  0  0  0
   17.0556   -9.9036   10.2611 C   0  0  0  0  0  0  0  0  0  0  0  0
   16.8009   -9.8276    8.8862 C   0  0  0  0  0  0  0  0  0  0  0  0
   15.7978  -10.3957    8.3812 O   0  0  0  0  0  0  0  0  0  0  0  0
   17.6643   -9.1212    8.1181 N   0  0  0  0  0  0  0  0  0  0  0  0
   17.6274   -8.9137    6.8417 O   0  0  0  0  0  0  0  0  0  0  0  0
 18 19  1  0  0  0
 19 20  2  0  0  0
 20 21  1  0  0  0
 21 22  2  0  0  0
 22 23  1  0  0  0
 23 17  1  0  0  0
 23 24  2  0  0  0
 17 16  1  0  0  0
 16  1  1  0  0  0
  1  2  2  0  0  0
  2  3  1  0  0  0
  3  4  2  0  0  0
  4  5  1  0  0  0
  5  7  1  0  0  0
  5  6  2  0  0  0
  7  8  1  0  0  0
  8  9  2  0  0  0
  8 11  1  0  0  0
 11 12  2  0  0  0
 12 13  1  0  0  0
 13 14  2  0  0  0
 14 15  1  0  0  0
 15 11  1  0  0  0
  6  1  1  0  0  0
 24 25  1  0  0  0
 25 26  2  0  0  0
 25 27  1  0  0  0
 27 28  1  0  0  0
 27 21  1  0  0  0
 28 19  1  0  0  0
  7 10  1  0  0  0
M  END
>  <minimizedAffinity>
-8.13109

>  <minimizedRMSD>
0.90999

$$$$
ChemDiv-G357-0548 MCULE-3303684959 MolPort-007-847-232 PubChem-46343286 ZINC000015771641


 34 37  0  0  0  0  0  0  0  0999 V2000
   17.2003   -9.9078   15.2045 C   0  0  0  0  0  0  0  0  0  0  0  0
   17.2535  -10.3772   16.5243 C   0  0  0  0  0  0  0  0  0  0  0  0
   16.6688   -9.6416   17.5592 C   0  0  0  0  0  0  0  0  0  0  0  0
   16.0245   -8.4299   17.2905 C   0  0  0  0  0  0  0  0  0  0  0  0
   15.9711   -7.9600   15.9700 C   0  0  0  0  0  0  0  0  0  0  0  0
   16.5551   -8.6942   14.9342 C   0  0  0  0  0  0  0  0  0  0  0  0
   15.4374   -7.7055   18.3800 N   0  0  0  0  0  0  0  0  0  0  0  0
   14.0442   -7.4233   18.5812 C   0  0  0  0  0  0  0  0  0  0  0  0
   13.1907   -7.8285   17.7452 O   0  0  0  0  0  0  0  0  0  0  0  0
   16.0573   -7.3645   19.0646 H   0  0  0  0  0  0  0  0  0  0  0  0
   13.5890   -6.6555   19.7678 C   0  0  0  0  0  0  0  0  0  0  0  0
   14.3483   -6.5604   20.9606 C   0  0  0  0  0  0  0  0  0  0  0  0
   13.8454   -5.8128   22.0399 C   0  0  0  0  0  0  0  0  0  0  0  0
   12.6127   -5.1666   21.9494 C   0  0  0  0  0  0  0  0  0  0  0  0
   11.8646   -5.2587   20.7776 C   0  0  0  0  0  0  0  0  0  0  0  0
   12.3500   -5.9970   19.6977 C   0  0  0  0  0  0  0  0  0  0  0  0
   15.5878   -7.2031   21.0679 O   0  0  0  0  0  0  0  0  0  0  0  0
   16.7089   -6.6206   21.7193 C   0  0  0  0  0  0  0  0  0  0  0  0
   17.8139  -10.6774   14.1104 C   0  0  0  0  0  0  0  0  0  0  0  0
   18.2624  -11.8373   14.3271 O   0  0  0  0  0  0  0  0  0  0  0  0
   17.8970  -10.1180   12.8333 O   0  0  0  0  0  0  0  0  0  0  0  0
   16.7391   -9.8030   12.0743 C   0  0  0  0  0  0  0  0  0  0  0  0
   19.2357   -7.7699    6.9270 C   0  0  0  0  0  0  0  0  0  0  0  0
   18.2335   -8.6805    6.8592 N   0  0  0  0  0  0  0  0  0  0  0  0
   17.7974   -9.0334    8.0660 N   0  0  0  0  0  0  0  0  0  0  0  0
   18.4343   -8.4148    9.0825 C   0  0  0  0  0  0  0  0  0  0  0  0
   19.6154   -7.3568    8.5284 S   0  0  0  0  0  0  0  0  0  0  0  0
   18.1124   -8.6549   10.3770 N   0  0  0  0  0  0  0  0  0  0  0  0
   17.1243   -9.5501   10.6609 C   0  0  0  0  0  0  0  0  0  0  0  0
   16.4380  -10.2025    9.6232 C   0  0  0  0  0  0  0  0  0  0  0  0
   16.7999   -9.9264    8.3000 C   0  0  0  0  0  0  0  0  0  0  0  0
   16.2062  -10.4976    7.3471 O   0  0  0  0  0  0  0  0  0  0  0  0
   19.5826   -8.0145    4.5002 C   0  0  0  0  0  0  0  0  0  0  0  0
   19.9014   -7.1869    5.7297 C   0  0  0  0  0  0  0  0  0  0  0  0
 33 34  1  0  0  0
 34 23  1  0  0  0
 23 24  2  0  0  0
 24 25  1  0  0  0
 25 26  1  0  0  0
 26 27  1  0  0  0
 26 28  2  0  0  0
 28 29  1  0  0  0
 29 22  1  0  0  0
 22 21  1  0  0  0
 21 19  1  0  0  0
 19 20  2  0  0  0
 19  1  1  0  0  0
  1  2  2  0  0  0
  2  3  1  0  0  0
  3  4  2  0  0  0
  4  7  1  0  0  0
  7  8  1  0  0  0
  8  9  2  0  0  0
  8 11  1  0  0  0
 11 12  2  0  0  0
 12 17  1  0  0  0
 17 18  1  0  0  0
 12 13  1  0  0  0
 13 14  2  0  0  0
 14 15  1  0  0  0
 15 16  2  0  0  0
  4  5  1  0  0  0
  5  6  2  0  0  0
 29 30  2  0  0  0
 30 31  1  0  0  0
 31 32  2  0  0  0
 27 23  1  0  0  0
  6  1  1  0  0  0
 31 25  1  0  0  0
 16 11  1  0  0  0
  7 10  1  0  0  0
M  END
>  <minimizedAffinity>
-8.12981

>  <minimizedRMSD>
1.42534

$$$$
ChemDiv-G756-2258 MCULE-1215809590 MolPort-010-744-724 PubChem-50802570 ZINC000033268647 ZINC33268647


 29 31  0  0  0  0  0  0  0  0999 V2000
   16.7175   -9.3707   16.7422 C   0  0  0  0  0  0  0  0  0  0  0  0
   16.5754   -8.9365   15.4155 C   0  0  0  0  0  0  0  0  0  0  0  0
   17.1179   -9.6763   14.3600 C   0  0  0  0  0  0  0  0  0  0  0  0
   17.8108  -10.8653   14.6371 C   0  0  0  0  0  0  0  0  0  0  0  0
   17.9558  -11.3034   15.9555 C   0  0  0  0  0  0  0  0  0  0  0  0
   17.4101  -10.5573   17.0035 C   0  0  0  0  0  0  0  0  0  0  0  0
   14.9998   -7.8044   17.8273 C   0  0  0  0  0  0  0  0  0  0  0  0
   14.3261   -7.6522   16.7742 O   0  0  0  0  0  0  0  0  0  0  0  0
   16.1717   -8.6337   17.8445 N   0  0  0  0  0  0  0  0  0  0  0  0
   16.6501   -8.7036   18.7021 H   0  0  0  0  0  0  0  0  0  0  0  0
   14.5622   -7.1033   19.0771 C   0  0  0  0  0  0  0  0  0  0  0  0
   15.5881   -6.9044   21.3446 C   0  0  0  0  0  0  0  0  0  0  0  0
   15.0243   -7.8621   20.3115 C   0  0  0  0  0  0  0  0  0  0  0  0
   13.0486   -6.9576   19.1125 C   0  0  0  0  0  0  0  0  0  0  0  0
   12.6567   -5.4950   19.2125 C   0  0  0  0  0  0  0  0  0  0  0  0
   16.9543   -9.2101   13.0532 O   0  0  0  0  0  0  0  0  0  0  0  0
   16.2014   -9.9156   12.0752 C   0  0  0  0  0  0  0  0  0  0  0  0
   16.7536   -9.6360   10.7235 C   0  0  0  0  0  0  0  0  0  0  0  0
   16.1847  -10.2328    9.6024 C   0  0  0  0  0  0  0  0  0  0  0  0
   16.7050   -9.9327    8.3445 C   0  0  0  0  0  0  0  0  0  0  0  0
   16.1937  -10.4763    7.3272 O   0  0  0  0  0  0  0  0  0  0  0  0
   17.7531   -9.0598    8.2246 N   0  0  0  0  0  0  0  0  0  0  0  0
   18.2627   -8.7669    6.9910 C   0  0  0  0  0  0  0  0  0  0  0  0
   19.3291   -7.8773    6.8521 C   0  0  0  0  0  0  0  0  0  0  0  0
   19.9717   -7.5117    5.2660 Cl  0  0  0  0  0  0  0  0  0  0  0  0
   19.8773   -7.2826    7.9864 C   0  0  0  0  0  0  0  0  0  0  0  0
   19.3572   -7.5818    9.2442 C   0  0  0  0  0  0  0  0  0  0  0  0
   18.2900   -8.4769    9.3516 C   0  0  0  0  0  0  0  0  0  0  0  0
   17.7855   -8.7673   10.5786 N   0  0  0  0  0  0  0  0  0  0  0  0
 12 13  1  0  0  0
 13 11  1  0  0  0
 11 14  1  0  0  0
 11  7  1  0  0  0
 14 15  1  0  0  0
  7  8  2  0  0  0
  7  9  1  0  0  0
  9  1  1  0  0  0
  1  2  2  0  0  0
  2  3  1  0  0  0
  3 16  1  0  0  0
  3  4  2  0  0  0
 16 17  1  0  0  0
 17 18  1  0  0  0
 18 19  2  0  0  0
 19 20  1  0  0  0
 20 21  2  0  0  0
 20 22  1  0  0  0
 22 23  1  0  0  0
 23 24  2  0  0  0
 24 25  1  0  0  0
 24 26  1  0  0  0
 26 27  2  0  0  0
 27 28  1  0  0  0
 28 29  2  0  0  0
 28 22  1  0  0  0
 29 18  1  0  0  0
  4  5  1  0  0  0
  5  6  2  0  0  0
  6  1  1  0  0  0
  9 10  1  0  0  0
M  END
>  <minimizedAffinity>
-8.12961

>  <minimizedRMSD>
1.16133

$$$$
ChemDiv-C679-4863 MCULE-2168636511 MolPort-007-655-996 PubChem-46258422 ZINC000020859362 ZINC20859362


 32 36  0  0  0  0  0  0  0  0999 V2000
   15.7833   -8.3459   17.1328 C   0  0  0  0  0  0  0  0  0  0  0  0
   15.9077   -8.3277   15.7353 C   0  0  0  0  0  0  0  0  0  0  0  0
   16.6812   -9.2874   15.0746 C   0  0  0  0  0  0  0  0  0  0  0  0
   17.3386  -10.2764   15.8231 C   0  0  0  0  0  0  0  0  0  0  0  0
   17.2207  -10.2993   17.2147 C   0  0  0  0  0  0  0  0  0  0  0  0
   16.4459   -9.3359   17.8659 C   0  0  0  0  0  0  0  0  0  0  0  0
   13.6383   -7.5018   18.2645 C   0  0  0  0  0  0  0  0  0  0  0  0
   13.0193   -8.5856   18.0816 O   0  0  0  0  0  0  0  0  0  0  0  0
   15.0026   -7.3722   17.8390 N   0  0  0  0  0  0  0  0  0  0  0  0
   15.4512   -6.5229   18.0554 H   0  0  0  0  0  0  0  0  0  0  0  0
   14.5327   -6.7329   21.2607 Cl  0  0  0  0  0  0  0  0  0  0  0  0
   13.2549   -6.0008   20.2994 C   0  0  0  0  0  0  0  0  0  0  0  0
   12.9546   -6.3902   18.9688 C   0  0  0  0  0  0  0  0  0  0  0  0
   11.9576   -5.6878   18.2713 C   0  0  0  0  0  0  0  0  0  0  0  0
   11.2617   -4.6380   18.8723 C   0  0  0  0  0  0  0  0  0  0  0  0
   11.5563   -4.2688   20.1835 C   0  0  0  0  0  0  0  0  0  0  0  0
   12.5511   -4.9453   20.8898 C   0  0  0  0  0  0  0  0  0  0  0  0
   16.7795   -9.2350   13.6820 O   0  0  0  0  0  0  0  0  0  0  0  0
   17.6726  -10.0588   12.9442 C   0  0  0  0  0  0  0  0  0  0  0  0
   17.5689   -9.7358   11.4967 C   0  0  0  0  0  0  0  0  0  0  0  0
   16.4555  -10.1753   10.7616 C   0  0  0  0  0  0  0  0  0  0  0  0
   16.3678   -9.8362    9.4068 C   0  0  0  0  0  0  0  0  0  0  0  0
   15.3835  -10.2171    8.7193 O   0  0  0  0  0  0  0  0  0  0  0  0
   17.3599   -9.0907    8.8521 N   0  0  0  0  0  0  0  0  0  0  0  0
   17.3940   -8.6971    7.5812 N   0  0  0  0  0  0  0  0  0  0  0  0
   18.5032   -7.9678    7.3013 C   0  0  0  0  0  0  0  0  0  0  0  0
   19.4880   -7.7627    8.6713 S   0  0  0  0  0  0  0  0  0  0  0  0
   18.4148   -8.6757    9.5844 C   0  0  0  0  0  0  0  0  0  0  0  0
   18.5346   -8.9815   10.8994 N   0  0  0  0  0  0  0  0  0  0  0  0
   18.7698   -7.3539    5.9662 C   0  0  0  0  0  0  0  0  0  0  0  0
   20.2531   -7.4272    5.6544 C   0  0  0  0  0  0  0  0  0  0  0  0
   19.2990   -8.4059    5.0088 C   0  0  0  0  0  0  0  0  0  0  0  0
 11 12  1  0  0  0
 12 13  2  0  0  0
 13 14  1  0  0  0
 13  7  1  0  0  0
 14 15  2  0  0  0
 15 16  1  0  0  0
 16 17  2  0  0  0
 17 12  1  0  0  0
  7  8  2  0  0  0
  7  9  1  0  0  0
  9  1  1  0  0  0
  1  2  2  0  0  0
  2  3  1  0  0  0
  3 18  1  0  0  0
  3  4  2  0  0  0
 18 19  1  0  0  0
 19 20  1  0  0  0
 20 21  2  0  0  0
 21 22  1  0  0  0
 22 23  2  0  0  0
 22 24  1  0  0  0
 24 25  1  0  0  0
 25 26  2  0  0  0
 26 27  1  0  0  0
 26 30  1  0  0  0
 27 28  1  0  0  0
 28 29  2  0  0  0
 28 24  1  0  0  0
 29 20  1  0  0  0
 30 31  1  0  0  0
 31 32  1  0  0  0
 32 30  1  0  0  0
  4  5  1  0  0  0
  5  6  2  0  0  0
  6  1  1  0  0  0
  9 10  1  0  0  0
M  END
>  <minimizedAffinity>
-8.12013

>  <minimizedRMSD>
1.53330

$$$$
ChemDiv-G756-0802 MCULE-5849388197 MolPort-010-744-680 PubChem-50802650 ZINC000033268599 ZINC33268599


 33 36  0  0  0  0  0  0  0  0999 V2000
   16.8324   -9.9081   16.6373 C   0  0  0  0  0  0  0  0  0  0  0  0
   17.5748  -11.0510   16.9353 C   0  0  0  0  0  0  0  0  0  0  0  0
   18.2282  -11.7509   15.9208 C   0  0  0  0  0  0  0  0  0  0  0  0
   18.1498  -11.3214   14.5924 C   0  0  0  0  0  0  0  0  0  0  0  0
   18.8827  -12.1294   13.5776 C   0  0  0  0  0  0  0  0  0  0  0  0
   17.3965  -10.1603   14.2741 C   0  0  0  0  0  0  0  0  0  0  0  0
   16.7501   -9.4733   15.3082 C   0  0  0  0  0  0  0  0  0  0  0  0
   15.3139   -8.0704   17.5899 C   0  0  0  0  0  0  0  0  0  0  0  0
   15.0652   -7.5661   16.4609 O   0  0  0  0  0  0  0  0  0  0  0  0
   16.1747   -9.2141   17.7061 N   0  0  0  0  0  0  0  0  0  0  0  0
   16.3296   -9.5579   18.6155 H   0  0  0  0  0  0  0  0  0  0  0  0
   12.9348   -6.2059   19.8734 C   0  0  0  0  0  0  0  0  0  0  0  0
   13.5759   -6.3601   21.1064 C   0  0  0  0  0  0  0  0  0  0  0  0
   14.7775   -7.0678   21.1932 C   0  0  0  0  0  0  0  0  0  0  0  0
   15.3450   -7.6260   20.0448 C   0  0  0  0  0  0  0  0  0  0  0  0
   14.7156   -7.4809   18.8007 C   0  0  0  0  0  0  0  0  0  0  0  0
   13.5098   -6.7691   18.7224 C   0  0  0  0  0  0  0  0  0  0  0  0
   11.4013   -4.6315   18.7389 C   0  0  0  0  0  0  0  0  0  0  0  0
   11.7342   -5.4926   19.8192 O   0  0  0  0  0  0  0  0  0  0  0  0
   17.2449   -9.6356   12.9804 O   0  0  0  0  0  0  0  0  0  0  0  0
   16.2581  -10.0328   12.0392 C   0  0  0  0  0  0  0  0  0  0  0  0
   16.7378   -9.7436   10.6624 C   0  0  0  0  0  0  0  0  0  0  0  0
   16.0339  -10.2261    9.5645 C   0  0  0  0  0  0  0  0  0  0  0  0
   16.4909   -9.9170    8.2850 C   0  0  0  0  0  0  0  0  0  0  0  0
   15.8551  -10.3578    7.2881 O   0  0  0  0  0  0  0  0  0  0  0  0
   17.6111   -9.1458    8.1213 N   0  0  0  0  0  0  0  0  0  0  0  0
   18.0534   -8.8482    6.8632 C   0  0  0  0  0  0  0  0  0  0  0  0
   19.1902   -8.0634    6.6703 C   0  0  0  0  0  0  0  0  0  0  0  0
   19.8799   -7.5779    7.7779 C   0  0  0  0  0  0  0  0  0  0  0  0
   19.4337   -7.8773    9.0637 C   0  0  0  0  0  0  0  0  0  0  0  0
   20.1882   -7.3459   10.2350 C   0  0  0  0  0  0  0  0  0  0  0  0
   18.2859   -8.6720    9.2263 C   0  0  0  0  0  0  0  0  0  0  0  0
   17.8384   -8.9739   10.4758 N   0  0  0  0  0  0  0  0  0  0  0  0
 18 19  1  0  0  0
 19 12  1  0  0  0
 12 13  2  0  0  0
 13 14  1  0  0  0
 14 15  2  0  0  0
 15 16  1  0  0  0
 16 17  2  0  0  0
 16  8  1  0  0  0
 17 12  1  0  0  0
  8  9  2  0  0  0
  8 10  1  0  0  0
 10  1  1  0  0  0
  1  2  2  0  0  0
  2  3  1  0  0  0
  3  4  2  0  0  0
  4  5  1  0  0  0
  4  6  1  0  0  0
  6 20  1  0  0  0
  6  7  2  0  0  0
 20 21  1  0  0  0
 21 22  1  0  0  0
 22 23  2  0  0  0
 23 24  1  0  0  0
 24 25  2  0  0  0
 24 26  1  0  0  0
 26 27  1  0  0  0
 27 28  2  0  0  0
 28 29  1  0  0  0
 29 30  2  0  0  0
 30 31  1  0  0  0
 30 32  1  0  0  0
 32 33  2  0  0  0
 32 26  1  0  0  0
 33 22  1  0  0  0
  7  1  1  0  0  0
 10 11  1  0  0  0
M  END
>  <minimizedAffinity>
-8.11626

>  <minimizedRMSD>
1.22312

$$$$
ChemDiv-C679-4390 MCULE-4677463668 MolPort-007-655-868 PubChem-46258352 ZINC000013368106


 34 37  0  0  0  0  0  0  0  0999 V2000
   17.3695  -10.0064   15.0741 C   0  0  0  0  0  0  0  0  0  0  0  0
   18.0606  -11.1075   15.6036 C   0  0  0  0  0  0  0  0  0  0  0  0
   18.0228  -11.3674   16.9757 C   0  0  0  0  0  0  0  0  0  0  0  0
   17.2954  -10.5300   17.8254 C   0  0  0  0  0  0  0  0  0  0  0  0
   16.6019   -9.4293   17.3116 C   0  0  0  0  0  0  0  0  0  0  0  0
   16.6443   -9.1742   15.9325 C   0  0  0  0  0  0  0  0  0  0  0  0
   15.8675   -8.5935   18.2166 N   0  0  0  0  0  0  0  0  0  0  0  0
   14.7416   -7.7605   17.8994 C   0  0  0  0  0  0  0  0  0  0  0  0
   14.2923   -7.7094   16.7219 O   0  0  0  0  0  0  0  0  0  0  0  0
   16.1670   -8.5905   19.1544 H   0  0  0  0  0  0  0  0  0  0  0  0
   14.1051   -6.9588   18.9595 C   0  0  0  0  0  0  0  0  0  0  0  0
   14.5954   -7.0021   20.2707 C   0  0  0  0  0  0  0  0  0  0  0  0
   13.9915   -6.2441   21.2769 C   0  0  0  0  0  0  0  0  0  0  0  0
   12.8733   -5.4389   20.9971 C   0  0  0  0  0  0  0  0  0  0  0  0
   12.4047   -5.3790   19.6727 C   0  0  0  0  0  0  0  0  0  0  0  0
   13.0088   -6.1370   18.6665 C   0  0  0  0  0  0  0  0  0  0  0  0
   12.2614   -4.5622   22.0737 C   0  0  0  0  0  0  0  0  0  0  0  0
   13.3361   -3.6658   22.6585 C   0  0  0  0  0  0  0  0  0  0  0  0
   11.1512   -3.6852   21.5145 C   0  0  0  0  0  0  0  0  0  0  0  0
   11.6610   -5.3932   23.1978 C   0  0  0  0  0  0  0  0  0  0  0  0
   17.3867   -9.7179   13.7072 O   0  0  0  0  0  0  0  0  0  0  0  0
   18.0176  -10.5611   12.7524 C   0  0  0  0  0  0  0  0  0  0  0  0
   17.4647   -8.9153    8.9100 N   0  0  0  0  0  0  0  0  0  0  0  0
   17.4320   -8.3226    7.7188 N   0  0  0  0  0  0  0  0  0  0  0  0
   18.5765   -7.6461    7.4563 C   0  0  0  0  0  0  0  0  0  0  0  0
   19.6873   -7.7489    8.7358 S   0  0  0  0  0  0  0  0  0  0  0  0
   18.6101   -8.7107    9.5939 C   0  0  0  0  0  0  0  0  0  0  0  0
   18.8078   -9.2367   10.8273 N   0  0  0  0  0  0  0  0  0  0  0  0
   17.8276   -9.9995   11.3891 C   0  0  0  0  0  0  0  0  0  0  0  0
   16.6215  -10.2224   10.7045 C   0  0  0  0  0  0  0  0  0  0  0  0
   16.4558   -9.6604    9.4339 C   0  0  0  0  0  0  0  0  0  0  0  0
   15.3871   -9.8440    8.7928 O   0  0  0  0  0  0  0  0  0  0  0  0
   18.7926   -6.8569    6.2140 C   0  0  0  0  0  0  0  0  0  0  0  0
   20.0921   -7.2765    5.5569 C   0  0  0  0  0  0  0  0  0  0  0  0
 23 24  1  0  0  0
 24 25  2  0  0  0
 25 26  1  0  0  0
 26 27  1  0  0  0
 27 28  2  0  0  0
 28 29  1  0  0  0
 29 22  1  0  0  0
 22 21  1  0  0  0
 21  1  1  0  0  0
  1  2  2  0  0  0
  2  3  1  0  0  0
  3  4  2  0  0  0
  4  5  1  0  0  0
  5  6  2  0  0  0
  5  7  1  0  0  0
  7  8  1  0  0  0
  8  9  2  0  0  0
  8 11  1  0  0  0
 11 12  2  0  0  0
 12 13  1  0  0  0
 13 14  2  0  0  0
 14 15  1  0  0  0
 15 16  2  0  0  0
 14 17  1  0  0  0
 17 18  1  0  0  0
 17 19  1  0  0  0
 17 20  1  0  0  0
 29 30  2  0  0  0
 30 31  1  0  0  0
 31 32  2  0  0  0
 25 33  1  0  0  0
 33 34  1  0  0  0
 27 23  1  0  0  0
  6  1  1  0  0  0
 16 11  1  0  0  0
 31 23  1  0  0  0
  7 10  1  0  0  0
M  END
>  <minimizedAffinity>
-8.10866

>  <minimizedRMSD>
0.98255

$$$$
ChemDiv-G756-2250 MCULE-4805040215 MolPort-010-744-721 PubChem-50802564 ZINC000033268643 ZINC33268643


 27 29  0  0  0  0  0  0  0  0999 V2000
   16.9452   -9.2201   13.0094 O   0  0  0  0  0  0  0  0  0  0  0  0
   16.7508   -9.3604   16.7018 C   0  0  0  0  0  0  0  0  0  0  0  0
   16.6063   -8.9261   15.3753 C   0  0  0  0  0  0  0  0  0  0  0  0
   17.1096   -9.6875   14.3157 C   0  0  0  0  0  0  0  0  0  0  0  0
   17.7652  -10.8984   14.5883 C   0  0  0  0  0  0  0  0  0  0  0  0
   17.9125  -11.3367   15.9065 C   0  0  0  0  0  0  0  0  0  0  0  0
   17.4063  -10.5690   16.9586 C   0  0  0  0  0  0  0  0  0  0  0  0
   15.0622   -7.7875   17.8235 C   0  0  0  0  0  0  0  0  0  0  0  0
   14.3373   -7.6752   16.7997 O   0  0  0  0  0  0  0  0  0  0  0  0
   16.2453   -8.6014   17.8084 N   0  0  0  0  0  0  0  0  0  0  0  0
   16.7631   -8.6425   18.6447 H   0  0  0  0  0  0  0  0  0  0  0  0
   14.9007   -7.9305   20.2860 C   0  0  0  0  0  0  0  0  0  0  0  0
   14.6748   -7.0580   19.0666 C   0  0  0  0  0  0  0  0  0  0  0  0
   13.2209   -6.6320   19.0006 C   0  0  0  0  0  0  0  0  0  0  0  0
   16.2077   -9.9340   12.0259 C   0  0  0  0  0  0  0  0  0  0  0  0
   16.7646   -9.6450   10.6780 C   0  0  0  0  0  0  0  0  0  0  0  0
   16.1994  -10.2334    9.5506 C   0  0  0  0  0  0  0  0  0  0  0  0
   16.7238   -9.9239    8.2967 C   0  0  0  0  0  0  0  0  0  0  0  0
   16.2157  -10.4597    7.2736 O   0  0  0  0  0  0  0  0  0  0  0  0
   17.7723   -9.0501    8.1867 N   0  0  0  0  0  0  0  0  0  0  0  0
   18.2853   -8.7474    6.9569 C   0  0  0  0  0  0  0  0  0  0  0  0
   19.3519   -7.8564    6.8281 C   0  0  0  0  0  0  0  0  0  0  0  0
   19.9987   -7.4781    5.2469 Cl  0  0  0  0  0  0  0  0  0  0  0  0
   19.8966   -7.2705    7.9688 C   0  0  0  0  0  0  0  0  0  0  0  0
   19.3729   -7.5796    9.2226 C   0  0  0  0  0  0  0  0  0  0  0  0
   18.3057   -8.4758    9.3199 C   0  0  0  0  0  0  0  0  0  0  0  0
   17.7971   -8.7753   10.5430 N   0  0  0  0  0  0  0  0  0  0  0  0
 12 13  1  0  0  0
 13 14  1  0  0  0
 13  8  1  0  0  0
  8  9  2  0  0  0
  8 10  1  0  0  0
 10  2  1  0  0  0
  2  3  2  0  0  0
  3  4  1  0  0  0
  4  1  1  0  0  0
  4  5  2  0  0  0
  1 15  1  0  0  0
 15 16  1  0  0  0
 16 17  2  0  0  0
 17 18  1  0  0  0
 18 19  2  0  0  0
 18 20  1  0  0  0
 20 21  1  0  0  0
 21 22  2  0  0  0
 22 23  1  0  0  0
 22 24  1  0  0  0
 24 25  2  0  0  0
 25 26  1  0  0  0
 26 27  2  0  0  0
 26 20  1  0  0  0
 27 16  1  0  0  0
  5  6  1  0  0  0
  6  7  2  0  0  0
  7  2  1  0  0  0
 10 11  1  0  0  0
M  END
>  <minimizedAffinity>
-8.10384

>  <minimizedRMSD>
0.95884

$$$$
ChemDiv-C679-4692 MCULE-7407655970 MolPort-007-655-962 PubChem-46258404 ZINC000013368254


 33 36  0  0  0  0  0  0  0  0999 V2000
   17.3514   -9.7493   14.9756 C   0  0  0  0  0  0  0  0  0  0  0  0
   18.7313   -9.5402   15.1274 C   0  0  0  0  0  0  0  0  0  0  0  0
   19.2268   -8.9272   16.2806 C   0  0  0  0  0  0  0  0  0  0  0  0
   18.3479   -8.5202   17.2879 C   0  0  0  0  0  0  0  0  0  0  0  0
   16.9709   -8.7232   17.1509 C   0  0  0  0  0  0  0  0  0  0  0  0
   16.4799   -9.3389   15.9892 C   0  0  0  0  0  0  0  0  0  0  0  0
   16.1015   -8.2879   18.2048 N   0  0  0  0  0  0  0  0  0  0  0  0
   14.8418   -7.6140   18.0600 C   0  0  0  0  0  0  0  0  0  0  0  0
   14.3775   -7.3607   16.9151 O   0  0  0  0  0  0  0  0  0  0  0  0
   16.3998   -8.4704   19.1251 H   0  0  0  0  0  0  0  0  0  0  0  0
   14.0828   -7.2191   19.2598 C   0  0  0  0  0  0  0  0  0  0  0  0
   14.4363   -7.7243   20.5197 C   0  0  0  0  0  0  0  0  0  0  0  0
   13.7160   -7.3517   21.6585 C   0  0  0  0  0  0  0  0  0  0  0  0
   12.6371   -6.4709   21.5455 C   0  0  0  0  0  0  0  0  0  0  0  0
   12.2782   -5.9621   20.2944 C   0  0  0  0  0  0  0  0  0  0  0  0
   12.9984   -6.3349   19.1557 C   0  0  0  0  0  0  0  0  0  0  0  0
   11.9390   -6.1103   22.6487 F   0  0  0  0  0  0  0  0  0  0  0  0
   16.8227  -10.3583   13.8346 O   0  0  0  0  0  0  0  0  0  0  0  0
   17.6276  -11.0583   12.8951 C   0  0  0  0  0  0  0  0  0  0  0  0
   17.4074   -9.0945    9.1702 N   0  0  0  0  0  0  0  0  0  0  0  0
   17.4808   -8.4107    8.0309 N   0  0  0  0  0  0  0  0  0  0  0  0
   18.6605   -7.7552    7.9068 C   0  0  0  0  0  0  0  0  0  0  0  0
   19.6692   -7.9944    9.2508 S   0  0  0  0  0  0  0  0  0  0  0  0
   18.5041   -8.9828    9.9491 C   0  0  0  0  0  0  0  0  0  0  0  0
   18.5948   -9.6108   11.1467 N   0  0  0  0  0  0  0  0  0  0  0  0
   17.5542  -10.3812   11.5734 C   0  0  0  0  0  0  0  0  0  0  0  0
   16.3969  -10.5093   10.7877 C   0  0  0  0  0  0  0  0  0  0  0  0
   16.3419   -9.8441    9.5580 C   0  0  0  0  0  0  0  0  0  0  0  0
   15.3194   -9.9409    8.8286 O   0  0  0  0  0  0  0  0  0  0  0  0
   18.9920   -6.8815    6.7497 C   0  0  0  0  0  0  0  0  0  0  0  0
   20.1981   -7.4374    6.0130 C   0  0  0  0  0  0  0  0  0  0  0  0
   19.9754   -7.3801    4.5124 C   0  0  0  0  0  0  0  0  0  0  0  0
   18.8430   -8.3059    4.1091 C   0  0  0  0  0  0  0  0  0  0  0  0
 20 21  1  0  0  0
 21 22  2  0  0  0
 22 23  1  0  0  0
 23 24  1  0  0  0
 24 25  2  0  0  0
 25 26  1  0  0  0
 26 19  1  0  0  0
 19 18  1  0  0  0
 18  1  1  0  0  0
  1  2  2  0  0  0
  2  3  1  0  0  0
  3  4  2  0  0  0
  4  5  1  0  0  0
  5  6  2  0  0  0
  5  7  1  0  0  0
  7  8  1  0  0  0
  8  9  2  0  0  0
  8 11  1  0  0  0
 11 12  2  0  0  0
 12 13  1  0  0  0
 13 14  2  0  0  0
 14 15  1  0  0  0
 15 16  2  0  0  0
 14 17  1  0  0  0
 26 27  2  0  0  0
 27 28  1  0  0  0
 28 29  2  0  0  0
 22 30  1  0  0  0
 30 31  1  0  0  0
 31 32  1  0  0  0
 32 33  1  0  0  0
 24 20  1  0  0  0
  6  1  1  0  0  0
 16 11  1  0  0  0
 28 20  1  0  0  0
  7 10  1  0  0  0
M  END
>  <minimizedAffinity>
-8.09938

>  <minimizedRMSD>
1.81215

$$$$
ChemDiv-C679-4558 MCULE-9592584150 MolPort-007-655-925 PubChem-20874287 ZINC000020859262


 35 38  0  0  0  0  0  0  0  0999 V2000
   17.2490   -9.9247   14.9943 C   0  0  0  0  0  0  0  0  0  0  0  0
   17.7356  -11.1236   15.5388 C   0  0  0  0  0  0  0  0  0  0  0  0
   17.6853  -11.3406   16.9178 C   0  0  0  0  0  0  0  0  0  0  0  0
   17.1493  -10.3626   17.7598 C   0  0  0  0  0  0  0  0  0  0  0  0
   16.6606   -9.1635   17.2311 C   0  0  0  0  0  0  0  0  0  0  0  0
   16.7146   -8.9519   15.8449 C   0  0  0  0  0  0  0  0  0  0  0  0
   16.1185   -8.1844   18.1278 N   0  0  0  0  0  0  0  0  0  0  0  0
   14.7711   -7.6962   18.1508 C   0  0  0  0  0  0  0  0  0  0  0  0
   13.9028   -8.1323   17.3495 O   0  0  0  0  0  0  0  0  0  0  0  0
   16.7356   -7.8087   18.7966 H   0  0  0  0  0  0  0  0  0  0  0  0
   14.3815   -6.6847   19.1676 C   0  0  0  0  0  0  0  0  0  0  0  0
   13.1695   -7.0827   19.7946 O   0  0  0  0  0  0  0  0  0  0  0  0
   12.4831   -6.2659   20.6967 C   0  0  0  0  0  0  0  0  0  0  0  0
   11.4516   -5.4489   20.2212 C   0  0  0  0  0  0  0  0  0  0  0  0
   10.7457   -4.6204   21.0987 C   0  0  0  0  0  0  0  0  0  0  0  0
   11.0687   -4.6051   22.4585 C   0  0  0  0  0  0  0  0  0  0  0  0
   12.0977   -5.4181   22.9417 C   0  0  0  0  0  0  0  0  0  0  0  0
   12.8036   -6.2464   22.0646 C   0  0  0  0  0  0  0  0  0  0  0  0
   10.1846   -3.5678   23.5563 Cl  0  0  0  0  0  0  0  0  0  0  0  0
   17.2843   -9.6757   13.6200 O   0  0  0  0  0  0  0  0  0  0  0  0
   17.9518  -10.5312   12.7016 C   0  0  0  0  0  0  0  0  0  0  0  0
   17.5357   -8.9425    8.8181 N   0  0  0  0  0  0  0  0  0  0  0  0
   17.5446   -8.3665    7.6186 N   0  0  0  0  0  0  0  0  0  0  0  0
   18.6913   -7.6805    7.3929 C   0  0  0  0  0  0  0  0  0  0  0  0
   19.7529   -7.7576    8.7152 S   0  0  0  0  0  0  0  0  0  0  0  0
   18.6513   -8.7175    9.5437 C   0  0  0  0  0  0  0  0  0  0  0  0
   18.8050   -9.2251   10.7910 N   0  0  0  0  0  0  0  0  0  0  0  0
   17.8108   -9.9902   11.3241 C   0  0  0  0  0  0  0  0  0  0  0  0
   16.6349  -10.2345   10.5955 C   0  0  0  0  0  0  0  0  0  0  0  0
   16.5142   -9.6911    9.3118 C   0  0  0  0  0  0  0  0  0  0  0  0
   15.4740   -9.8945    8.6313 O   0  0  0  0  0  0  0  0  0  0  0  0
   18.9538   -6.9110    6.1434 C   0  0  0  0  0  0  0  0  0  0  0  0
   19.8624   -7.6919    5.2079 C   0  0  0  0  0  0  0  0  0  0  0  0
   20.9776   -6.7888    4.7258 C   0  0  0  0  0  0  0  0  0  0  0  0
   19.0795   -8.1958    4.0098 C   0  0  0  0  0  0  0  0  0  0  0  0
 22 23  1  0  0  0
 23 24  2  0  0  0
 24 25  1  0  0  0
 25 26  1  0  0  0
 26 27  2  0  0  0
 27 28  1  0  0  0
 28 21  1  0  0  0
 21 20  1  0  0  0
 20  1  1  0  0  0
  1  2  2  0  0  0
  2  3  1  0  0  0
  3  4  2  0  0  0
  4  5  1  0  0  0
  5  6  2  0  0  0
  5  7  1  0  0  0
  7  8  1  0  0  0
  8 11  1  0  0  0
 11 12  1  0  0  0
 12 13  1  0  0  0
 13 14  2  0  0  0
 14 15  1  0  0  0
 15 16  2  0  0  0
 16 17  1  0  0  0
 17 18  2  0  0  0
 16 19  1  0  0  0
  8  9  2  0  0  0
 28 29  2  0  0  0
 29 30  1  0  0  0
 30 31  2  0  0  0
 24 32  1  0  0  0
 32 33  1  0  0  0
 33 34  1  0  0  0
 33 35  1  0  0  0
 26 22  1  0  0  0
  6  1  1  0  0  0
 18 13  1  0  0  0
 30 22  1  0  0  0
  7 10  1  0  0  0
M  END
>  <minimizedAffinity>
-8.09761

>  <minimizedRMSD>
1.52889

$$$$
ChemDiv-D439-2855 MCULE-5402784303 MolPort-010-713-973 PubChem-50748745 ZINC000021796819 ZINC21796819


 32 35  0  0  0  0  0  0  0  0999 V2000
   16.7491   -9.7059   14.3000 C   0  0  0  0  0  0  0  0  0  0  0  0
   18.1197  -10.0045   14.3525 C   0  0  0  0  0  0  0  0  0  0  0  0
   18.8305   -9.8366   15.5432 C   0  0  0  0  0  0  0  0  0  0  0  0
   18.1771   -9.3700   16.6869 C   0  0  0  0  0  0  0  0  0  0  0  0
   16.8118   -9.0685   16.6492 C   0  0  0  0  0  0  0  0  0  0  0  0
   16.1040   -9.2395   15.4496 C   0  0  0  0  0  0  0  0  0  0  0  0
   16.1777   -8.5920   17.8440 N   0  0  0  0  0  0  0  0  0  0  0  0
   15.0016   -7.7723   17.9274 C   0  0  0  0  0  0  0  0  0  0  0  0
   14.4085   -7.3920   16.8812 O   0  0  0  0  0  0  0  0  0  0  0  0
   16.5926   -8.8547   18.6973 H   0  0  0  0  0  0  0  0  0  0  0  0
   14.4830   -7.3719   19.2473 C   0  0  0  0  0  0  0  0  0  0  0  0
   15.2829   -7.5018   20.3923 C   0  0  0  0  0  0  0  0  0  0  0  0
   14.7919   -7.1221   21.6448 C   0  0  0  0  0  0  0  0  0  0  0  0
   13.4973   -6.6095   21.7619 C   0  0  0  0  0  0  0  0  0  0  0  0
   13.0217   -6.2417   22.9756 F   0  0  0  0  0  0  0  0  0  0  0  0
   12.6933   -6.4765   20.6267 C   0  0  0  0  0  0  0  0  0  0  0  0
   13.1842   -6.8562   19.3741 C   0  0  0  0  0  0  0  0  0  0  0  0
   16.0087   -9.8626   13.1255 O   0  0  0  0  0  0  0  0  0  0  0  0
   16.3614  -10.7976   12.1146 C   0  0  0  0  0  0  0  0  0  0  0  0
   18.8186   -7.9930    8.0703 N   0  0  0  0  0  0  0  0  0  0  0  0
   19.9083   -7.6266    8.7834 C   0  0  0  0  0  0  0  0  0  0  0  0
   19.8555   -8.1085   10.0536 N   0  0  0  0  0  0  0  0  0  0  0  0
   18.6854   -8.7749   10.0531 C   0  0  0  0  0  0  0  0  0  0  0  0
   18.1641   -9.4450   11.1095 N   0  0  0  0  0  0  0  0  0  0  0  0
   16.9653  -10.0802   10.9610 C   0  0  0  0  0  0  0  0  0  0  0  0
   16.2760  -10.0255    9.7349 C   0  0  0  0  0  0  0  0  0  0  0  0
   16.8499   -9.3218    8.6691 C   0  0  0  0  0  0  0  0  0  0  0  0
   16.2553   -9.2616    7.5621 O   0  0  0  0  0  0  0  0  0  0  0  0
   18.0537   -8.7155    8.8764 N   0  0  0  0  0  0  0  0  0  0  0  0
   17.1664   -7.1410    6.4558 C   0  0  0  0  0  0  0  0  0  0  0  0
   18.5875   -7.6270    6.6742 C   0  0  0  0  0  0  0  0  0  0  0  0
   18.9369   -8.7680    5.7362 C   0  0  0  0  0  0  0  0  0  0  0  0
 30 31  1  0  0  0
 31 32  1  0  0  0
 31 20  1  0  0  0
 20 21  1  0  0  0
 21 22  2  0  0  0
 22 23  1  0  0  0
 23 24  2  0  0  0
 24 25  1  0  0  0
 25 19  1  0  0  0
 25 26  2  0  0  0
 19 18  1  0  0  0
 18  1  1  0  0  0
  1  2  2  0  0  0
  2  3  1  0  0  0
  3  4  2  0  0  0
  4  5  1  0  0  0
  5  7  1  0  0  0
  5  6  2  0  0  0
  7  8  1  0  0  0
  8  9  2  0  0  0
  8 11  1  0  0  0
 11 12  2  0  0  0
 12 13  1  0  0  0
 13 14  2  0  0  0
 14 15  1  0  0  0
 14 16  1  0  0  0
 16 17  2  0  0  0
 17 11  1  0  0  0
  6  1  1  0  0  0
 26 27  1  0  0  0
 27 28  2  0  0  0
 27 29  1  0  0  0
 29 20  1  0  0  0
 29 23  1  0  0  0
  7 10  1  0  0  0
M  END
>  <minimizedAffinity>
-8.08827

>  <minimizedRMSD>
1.47970

$$$$
ChemDiv-F797-0214 MCULE-9835636676 MolPort-010-683-141 PubChem-53006727 ZINC000035423991


 36 39  0  0  0  0  0  0  0  0999 V2000
   18.0291  -10.4892   11.9774 C   0  0  0  0  0  0  0  0  0  0  0  0
   17.8821  -10.4338   13.4604 C   0  0  0  0  0  0  0  0  0  0  0  0
   16.5755  -10.3997   14.0442 N   0  0  0  0  0  0  0  0  0  0  0  0
   18.9125  -10.4243   14.1886 O   0  0  0  0  0  0  0  0  0  0  0  0
   15.7910  -10.4765   13.4544 H   0  0  0  0  0  0  0  0  0  0  0  0
   16.3628  -10.2556   15.4793 C   0  0  0  0  0  0  0  0  0  0  0  0
   16.8172   -8.8785   15.9493 C   0  0  0  0  0  0  0  0  0  0  0  0
   15.8999   -8.3362   16.9922 C   0  0  0  0  0  0  0  0  0  0  0  0
   14.6336   -7.8701   16.6277 C   0  0  0  0  0  0  0  0  0  0  0  0
   13.7633   -7.3688   17.6013 C   0  0  0  0  0  0  0  0  0  0  0  0
   14.1573   -7.3308   18.9436 C   0  0  0  0  0  0  0  0  0  0  0  0
   15.4277   -7.7883   19.3074 C   0  0  0  0  0  0  0  0  0  0  0  0
   16.2982   -8.2896   18.3335 C   0  0  0  0  0  0  0  0  0  0  0  0
   13.0862   -6.6677   20.1645 S   0  0  0  0  0  0  0  0  0  0  0  0
   13.9352   -5.4722   21.0789 N   0  0  0  0  0  0  0  0  0  0  0  0
   12.6184   -7.7670   21.0773 O   0  0  0  0  0  0  0  0  0  0  0  0
   11.8920   -6.0326   19.5094 O   0  0  0  0  0  0  0  0  0  0  0  0
   14.7469   -5.8988   21.5256 H   0  0  0  0  0  0  0  0  0  0  0  0
   13.3168   -5.0880   21.7933 H   0  0  0  0  0  0  0  0  0  0  0  0
   17.1784   -9.4137   11.3130 C   0  0  0  0  0  0  0  0  0  0  0  0
   17.9600   -8.8664    7.7158 C   0  0  0  0  0  0  0  0  0  0  0  0
   17.2949   -9.3018    8.8553 C   0  0  0  0  0  0  0  0  0  0  0  0
   16.2559  -10.0100    8.7583 O   0  0  0  0  0  0  0  0  0  0  0  0
   17.8089   -8.9529   10.0809 N   0  0  0  0  0  0  0  0  0  0  0  0
   18.9487   -8.1891   10.1719 C   0  0  0  0  0  0  0  0  0  0  0  0
   19.6002   -7.7577    9.0498 N   0  0  0  0  0  0  0  0  0  0  0  0
   19.0916   -8.1105    7.8468 C   0  0  0  0  0  0  0  0  0  0  0  0
   19.5180   -7.8176    6.5824 C   0  0  0  0  0  0  0  0  0  0  0  0
   18.6022   -8.4257    5.7416 C   0  0  0  0  0  0  0  0  0  0  0  0
   18.7277   -8.3330    4.3562 C   0  0  0  0  0  0  0  0  0  0  0  0
   19.8126   -7.5965    3.8435 C   0  0  0  0  0  0  0  0  0  0  0  0
   20.7363   -6.9691    4.7117 C   0  0  0  0  0  0  0  0  0  0  0  0
   21.8678   -6.1904    4.1456 C   0  0  0  0  0  0  0  0  0  0  0  0
   20.5952   -7.0750    6.1084 C   0  0  0  0  0  0  0  0  0  0  0  0
   17.6255   -9.0800    6.4195 N   0  0  0  0  0  0  0  0  0  0  0  0
   16.8617   -9.5856    6.0586 H   0  0  0  0  0  0  0  0  0  0  0  0
 21 22  1  0  0  0
 22 23  2  0  0  0
 22 24  1  0  0  0
 24 20  1  0  0  0
 20  1  1  0  0  0
  1  2  1  0  0  0
  2  3  1  0  0  0
  3  6  1  0  0  0
  6  7  1  0  0  0
  7  8  1  0  0  0
  8  9  2  0  0  0
  9 10  1  0  0  0
 10 11  2  0  0  0
 11 12  1  0  0  0
 12 13  2  0  0  0
 11 14  1  0  0  0
 14 15  1  0  0  0
 14 16  2  0  0  0
 14 17  2  0  0  0
  2  4  2  0  0  0
 24 25  1  0  0  0
 25 26  2  0  0  0
 26 27  1  0  0  0
 27 28  1  0  0  0
 28 29  2  0  0  0
 29 30  1  0  0  0
 30 31  2  0  0  0
 31 32  1  0  0  0
 32 33  1  0  0  0
 32 34  2  0  0  0
 29 35  1  0  0  0
 27 21  2  0  0  0
 34 28  1  0  0  0
 35 21  1  0  0  0
 13  8  1  0  0  0
  3  5  1  0  0  0
 15 18  1  0  0  0
 15 19  1  0  0  0
 35 36  1  0  0  0
M  END
>  <minimizedAffinity>
-8.08574

>  <minimizedRMSD>
3.35944

$$$$
ChemDiv-G756-1064 MCULE-2450387532 MolPort-007-879-571 PubChem-46356378 ZINC000021100252 ZINC21100252


 38 41  0  0  0  0  0  0  0  0999 V2000
   16.6156   -9.3521   17.1094 C   0  0  0  0  0  0  0  0  0  0  0  0
   16.6827   -9.0088   15.7504 C   0  0  0  0  0  0  0  0  0  0  0  0
   17.3192   -9.8493   14.8319 C   0  0  0  0  0  0  0  0  0  0  0  0
   17.8950  -11.0484   15.2800 C   0  0  0  0  0  0  0  0  0  0  0  0
   17.8327  -11.3961   16.6317 C   0  0  0  0  0  0  0  0  0  0  0  0
   17.1953  -10.5491   17.5422 C   0  0  0  0  0  0  0  0  0  0  0  0
   14.2156   -6.9742   18.9617 N   0  0  0  0  0  0  0  0  0  0  0  0
   14.7349   -7.7990   17.9102 C   0  0  0  0  0  0  0  0  0  0  0  0
   14.0771   -7.8986   16.8411 O   0  0  0  0  0  0  0  0  0  0  0  0
   15.9711   -8.5098   18.0743 N   0  0  0  0  0  0  0  0  0  0  0  0
   13.3402   -6.5554   18.7959 H   0  0  0  0  0  0  0  0  0  0  0  0
   16.4248   -8.4082   18.9421 H   0  0  0  0  0  0  0  0  0  0  0  0
   15.9520   -6.0893   22.7290 C   0  0  0  0  0  0  0  0  0  0  0  0
   16.7577   -6.5896   21.7012 C   0  0  0  0  0  0  0  0  0  0  0  0
   16.1978   -6.8859   20.4556 C   0  0  0  0  0  0  0  0  0  0  0  0
   14.8269   -6.6900   20.2279 C   0  0  0  0  0  0  0  0  0  0  0  0
   14.0266   -6.1926   21.2627 C   0  0  0  0  0  0  0  0  0  0  0  0
   14.5844   -5.8956   22.5096 C   0  0  0  0  0  0  0  0  0  0  0  0
   16.5432   -5.7916   24.0644 C   0  0  0  0  0  0  0  0  0  0  0  0
   15.6276   -6.2418   25.1506 C   0  0  0  0  0  0  0  0  0  0  0  0
   15.5436   -7.4696   25.4245 O   0  0  0  0  0  0  0  0  0  0  0  0
   14.8497   -5.3018   25.8281 O   0  0  0  0  0  0  0  0  0  0  0  0
   12.5264   -4.9398   25.3648 C   0  0  0  0  0  0  0  0  0  0  0  0
   13.5370   -5.6009   26.2786 C   0  0  0  0  0  0  0  0  0  0  0  0
   17.3662   -9.4698   13.4882 O   0  0  0  0  0  0  0  0  0  0  0  0
   18.4377   -9.8278   12.6254 C   0  0  0  0  0  0  0  0  0  0  0  0
   18.0385   -9.5921   11.2128 C   0  0  0  0  0  0  0  0  0  0  0  0
   16.7864  -10.0030   10.7654 C   0  0  0  0  0  0  0  0  0  0  0  0
   16.4243   -9.7392    9.4454 C   0  0  0  0  0  0  0  0  0  0  0  0
   15.2909  -10.1143    9.0369 O   0  0  0  0  0  0  0  0  0  0  0  0
   17.2905   -9.0811    8.6134 N   0  0  0  0  0  0  0  0  0  0  0  0
   16.9330   -8.8203    7.3205 C   0  0  0  0  0  0  0  0  0  0  0  0
   17.8025   -8.1472    6.4603 C   0  0  0  0  0  0  0  0  0  0  0  0
   19.0487   -7.7388    6.9318 C   0  0  0  0  0  0  0  0  0  0  0  0
   19.9880   -7.0224    6.0303 C   0  0  0  0  0  0  0  0  0  0  0  0
   19.4127   -8.0039    8.2506 C   0  0  0  0  0  0  0  0  0  0  0  0
   18.5206   -8.6793    9.0866 C   0  0  0  0  0  0  0  0  0  0  0  0
   18.8763   -8.9346   10.3721 N   0  0  0  0  0  0  0  0  0  0  0  0
 23 24  1  0  0  0
 24 22  1  0  0  0
 22 20  1  0  0  0
 20 21  2  0  0  0
 20 19  1  0  0  0
 19 13  1  0  0  0
 13 14  2  0  0  0
 14 15  1  0  0  0
 15 16  2  0  0  0
 16  7  1  0  0  0
 16 17  1  0  0  0
  7  8  1  0  0  0
  8  9  2  0  0  0
  8 10  1  0  0  0
 10  1  1  0  0  0
  1  2  2  0  0  0
  2  3  1  0  0  0
  3 25  1  0  0  0
  3  4  2  0  0  0
 25 26  1  0  0  0
 26 27  1  0  0  0
 27 28  2  0  0  0
 28 29  1  0  0  0
 29 30  2  0  0  0
 29 31  1  0  0  0
 31 32  1  0  0  0
 32 33  2  0  0  0
 33 34  1  0  0  0
 34 35  1  0  0  0
 34 36  2  0  0  0
 36 37  1  0  0  0
 37 38  2  0  0  0
 37 31  1  0  0  0
 38 27  1  0  0  0
  4  5  1  0  0  0
  5  6  2  0  0  0
  6  1  1  0  0  0
 17 18  2  0  0  0
 18 13  1  0  0  0
  7 11  1  0  0  0
 10 12  1  0  0  0
M  END
>  <minimizedAffinity>
-8.07744

>  <minimizedRMSD>
1.58283

$$$$
ChemDiv-G756-0986 MCULE-8614996393 MolPort-010-744-688 PubChem-50802620 ZINC000033268607 ZINC33268607


 27 29  0  0  0  0  0  0  0  0999 V2000
   17.3667   -9.8008   13.0923 O   0  0  0  0  0  0  0  0  0  0  0  0
   16.8303   -9.7468   16.7530 C   0  0  0  0  0  0  0  0  0  0  0  0
   16.8250   -9.3755   15.3998 C   0  0  0  0  0  0  0  0  0  0  0  0
   17.3924  -10.2067   14.4289 C   0  0  0  0  0  0  0  0  0  0  0  0
   17.9720  -11.4245   14.8184 C   0  0  0  0  0  0  0  0  0  0  0  0
   17.9807  -11.8003   16.1638 C   0  0  0  0  0  0  0  0  0  0  0  0
   17.4112  -10.9630   17.1266 C   0  0  0  0  0  0  0  0  0  0  0  0
   15.2158   -7.9405   17.5984 C   0  0  0  0  0  0  0  0  0  0  0  0
   14.7000   -7.7331   16.4684 O   0  0  0  0  0  0  0  0  0  0  0  0
   16.2563   -8.9152   17.7706 N   0  0  0  0  0  0  0  0  0  0  0  0
   16.6126   -9.0238   18.6819 H   0  0  0  0  0  0  0  0  0  0  0  0
   14.9529   -7.9254   20.0564 C   0  0  0  0  0  0  0  0  0  0  0  0
   14.7294   -7.1541   18.7700 C   0  0  0  0  0  0  0  0  0  0  0  0
   13.2568   -6.8272   18.6151 C   0  0  0  0  0  0  0  0  0  0  0  0
   18.5481   -9.5291   12.3497 C   0  0  0  0  0  0  0  0  0  0  0  0
   18.2096   -9.3862   10.9092 C   0  0  0  0  0  0  0  0  0  0  0  0
   17.0127   -9.9016   10.4211 C   0  0  0  0  0  0  0  0  0  0  0  0
   16.7077   -9.7296    9.0717 C   0  0  0  0  0  0  0  0  0  0  0  0
   15.6250  -10.2001    8.6261 O   0  0  0  0  0  0  0  0  0  0  0  0
   17.5744   -9.0583    8.2512 N   0  0  0  0  0  0  0  0  0  0  0  0
   17.2742   -8.8903    6.9285 C   0  0  0  0  0  0  0  0  0  0  0  0
   18.1451   -8.2058    6.0789 C   0  0  0  0  0  0  0  0  0  0  0  0
   19.3334   -7.6896    6.5917 C   0  0  0  0  0  0  0  0  0  0  0  0
   20.2723   -6.9577    5.7023 C   0  0  0  0  0  0  0  0  0  0  0  0
   19.6395   -7.8608    7.9403 C   0  0  0  0  0  0  0  0  0  0  0  0
   18.7479   -8.5511    8.7646 C   0  0  0  0  0  0  0  0  0  0  0  0
   19.0480   -8.7168   10.0787 N   0  0  0  0  0  0  0  0  0  0  0  0
 12 13  1  0  0  0
 13 14  1  0  0  0
 13  8  1  0  0  0
  8  9  2  0  0  0
  8 10  1  0  0  0
 10  2  1  0  0  0
  2  3  2  0  0  0
  3  4  1  0  0  0
  4  1  1  0  0  0
  4  5  2  0  0  0
  1 15  1  0  0  0
 15 16  1  0  0  0
 16 17  2  0  0  0
 17 18  1  0  0  0
 18 19  2  0  0  0
 18 20  1  0  0  0
 20 21  1  0  0  0
 21 22  2  0  0  0
 22 23  1  0  0  0
 23 24  1  0  0  0
 23 25  2  0  0  0
 25 26  1  0  0  0
 26 27  2  0  0  0
 26 20  1  0  0  0
 27 16  1  0  0  0
  5  6  1  0  0  0
  6  7  2  0  0  0
  7  2  1  0  0  0
 10 11  1  0  0  0
M  END
>  <minimizedAffinity>
-8.07107

>  <minimizedRMSD>
0.84406

$$$$
ChemDiv-G357-1544 CHEMBL1433580 MCULE-5529437515 MolPort-007-847-575 PubChem-16027638 ZINC000008607692 ZINC08607692


 32 35  0  0  0  0  0  0  0  0999 V2000
   15.7697   -8.3852   17.1489 C   0  0  0  0  0  0  0  0  0  0  0  0
   16.5242   -9.4438   17.6643 C   0  0  0  0  0  0  0  0  0  0  0  0
   17.1440  -10.3555   16.8051 C   0  0  0  0  0  0  0  0  0  0  0  0
   17.0159  -10.2186   15.4159 C   0  0  0  0  0  0  0  0  0  0  0  0
   16.2603   -9.1586   14.8985 C   0  0  0  0  0  0  0  0  0  0  0  0
   15.6413   -8.2479   15.7589 C   0  0  0  0  0  0  0  0  0  0  0  0
   13.7505   -7.3651   18.3668 C   0  0  0  0  0  0  0  0  0  0  0  0
   12.9220   -8.1299   17.8006 O   0  0  0  0  0  0  0  0  0  0  0  0
   15.1498   -7.4714   18.0639 N   0  0  0  0  0  0  0  0  0  0  0  0
   15.7491   -6.8491   18.5358 H   0  0  0  0  0  0  0  0  0  0  0  0
   13.7446   -6.2794   20.6732 C   0  0  0  0  0  0  0  0  0  0  0  0
   13.2596   -6.3609   19.3441 C   0  0  0  0  0  0  0  0  0  0  0  0
   12.2707   -5.4549   18.9259 C   0  0  0  0  0  0  0  0  0  0  0  0
   11.7667   -4.4867   19.7950 C   0  0  0  0  0  0  0  0  0  0  0  0
   12.2450   -4.4083   21.1013 C   0  0  0  0  0  0  0  0  0  0  0  0
   13.2266   -5.2982   21.5369 C   0  0  0  0  0  0  0  0  0  0  0  0
   15.9620   -6.7323   21.6878 C   0  0  0  0  0  0  0  0  0  0  0  0
   14.7300   -7.1651   21.1264 O   0  0  0  0  0  0  0  0  0  0  0  0
   17.6660  -11.1751   14.5058 C   0  0  0  0  0  0  0  0  0  0  0  0
   18.2035  -12.2206   14.9658 O   0  0  0  0  0  0  0  0  0  0  0  0
   17.6847  -10.9200   13.1327 O   0  0  0  0  0  0  0  0  0  0  0  0
   18.5346   -9.9355   12.5629 C   0  0  0  0  0  0  0  0  0  0  0  0
   18.0777   -9.6219   11.1835 C   0  0  0  0  0  0  0  0  0  0  0  0
   16.8340  -10.0949   10.7357 C   0  0  0  0  0  0  0  0  0  0  0  0
   16.4137   -9.7624    9.4430 C   0  0  0  0  0  0  0  0  0  0  0  0
   15.3036  -10.1767    9.0136 O   0  0  0  0  0  0  0  0  0  0  0  0
   17.2206   -8.9879    8.6674 N   0  0  0  0  0  0  0  0  0  0  0  0
   16.9626   -8.5743    7.3971 C   0  0  0  0  0  0  0  0  0  0  0  0
   17.9698   -7.7798    6.8369 C   0  0  0  0  0  0  0  0  0  0  0  0
   19.2008   -7.6108    7.9918 S   0  0  0  0  0  0  0  0  0  0  0  0
   18.4060   -8.5422    9.1287 C   0  0  0  0  0  0  0  0  0  0  0  0
   18.8484   -8.8418   10.3745 N   0  0  0  0  0  0  0  0  0  0  0  0
 17 18  1  0  0  0
 18 11  1  0  0  0
 11 12  2  0  0  0
 12 13  1  0  0  0
 12  7  1  0  0  0
 13 14  2  0  0  0
 14 15  1  0  0  0
 15 16  2  0  0  0
 16 11  1  0  0  0
  7  8  2  0  0  0
  7  9  1  0  0  0
  9  1  1  0  0  0
  1  2  2  0  0  0
  2  3  1  0  0  0
  3  4  2  0  0  0
  4  5  1  0  0  0
  4 19  1  0  0  0
  5  6  2  0  0  0
  6  1  1  0  0  0
 19 20  2  0  0  0
 19 21  1  0  0  0
 21 22  1  0  0  0
 22 23  1  0  0  0
 23 24  2  0  0  0
 24 25  1  0  0  0
 25 26  2  0  0  0
 25 27  1  0  0  0
 27 28  1  0  0  0
 28 29  2  0  0  0
 29 30  1  0  0  0
 30 31  1  0  0  0
 31 32  2  0  0  0
 31 27  1  0  0  0
 32 23  1  0  0  0
  9 10  1  0  0  0
M  END
>  <minimizedAffinity>
-8.06866

>  <minimizedRMSD>
1.64055

$$$$
ChemDiv-G357-3025 MCULE-3230459342 MolPort-007-847-907 PubChem-20953177 ZINC000015772194 ZINC15772194


 34 37  0  0  0  0  0  0  0  0999 V2000
   17.2366  -10.4306   14.6783 C   0  0  0  0  0  0  0  0  0  0  0  0
   16.4973   -9.2534   14.5055 C   0  0  0  0  0  0  0  0  0  0  0  0
   16.0640   -8.5234   15.6153 C   0  0  0  0  0  0  0  0  0  0  0  0
   16.3651   -8.9607   16.9136 C   0  0  0  0  0  0  0  0  0  0  0  0
   17.1039  -10.1356   17.0851 C   0  0  0  0  0  0  0  0  0  0  0  0
   17.5373  -10.8674   15.9759 C   0  0  0  0  0  0  0  0  0  0  0  0
   15.9361   -8.2397   18.0766 N   0  0  0  0  0  0  0  0  0  0  0  0
   14.7491   -7.4459   18.2037 C   0  0  0  0  0  0  0  0  0  0  0  0
   13.9511   -7.3032   17.2400 O   0  0  0  0  0  0  0  0  0  0  0  0
   16.5167   -8.2957   18.8696 H   0  0  0  0  0  0  0  0  0  0  0  0
   14.4505   -6.7779   19.5023 C   0  0  0  0  0  0  0  0  0  0  0  0
   13.3988   -7.4583   20.1809 O   0  0  0  0  0  0  0  0  0  0  0  0
   12.2600   -7.9531   19.5353 C   0  0  0  0  0  0  0  0  0  0  0  0
   11.4661   -7.1384   18.7109 C   0  0  0  0  0  0  0  0  0  0  0  0
   10.3348   -7.6640   18.0802 C   0  0  0  0  0  0  0  0  0  0  0  0
    9.9893   -9.0049   18.2700 C   0  0  0  0  0  0  0  0  0  0  0  0
    8.5731   -9.6637   17.4803 Cl  0  0  0  0  0  0  0  0  0  0  0  0
   10.7738   -9.8195   19.0910 C   0  0  0  0  0  0  0  0  0  0  0  0
   11.9056   -9.2938   19.7217 C   0  0  0  0  0  0  0  0  0  0  0  0
   17.6897  -11.1968   13.5062 C   0  0  0  0  0  0  0  0  0  0  0  0
   18.1874  -12.3469   13.6566 O   0  0  0  0  0  0  0  0  0  0  0  0
   17.5666  -10.6449   12.2291 O   0  0  0  0  0  0  0  0  0  0  0  0
   18.1355   -9.3872   11.8961 C   0  0  0  0  0  0  0  0  0  0  0  0
   19.7968   -7.0797    5.1684 C   0  0  0  0  0  0  0  0  0  0  0  0
   19.2931   -7.6755    6.4336 C   0  0  0  0  0  0  0  0  0  0  0  0
   19.8242   -7.4302    7.7045 C   0  0  0  0  0  0  0  0  0  0  0  0
   18.9999   -8.2171    8.4857 C   0  0  0  0  0  0  0  0  0  0  0  0
   19.0390   -8.3801    9.8310 N   0  0  0  0  0  0  0  0  0  0  0  0
   18.1295   -9.2133   10.4197 C   0  0  0  0  0  0  0  0  0  0  0  0
   17.1587   -9.8779    9.6424 C   0  0  0  0  0  0  0  0  0  0  0  0
   17.1578   -9.6765    8.2567 C   0  0  0  0  0  0  0  0  0  0  0  0
   16.3137  -10.2498    7.5195 O   0  0  0  0  0  0  0  0  0  0  0  0
   18.0912   -8.8453    7.7346 N   0  0  0  0  0  0  0  0  0  0  0  0
   18.2760   -8.5122    6.4984 O   0  0  0  0  0  0  0  0  0  0  0  0
 24 25  1  0  0  0
 25 26  2  0  0  0
 26 27  1  0  0  0
 27 28  2  0  0  0
 28 29  1  0  0  0
 29 23  1  0  0  0
 29 30  2  0  0  0
 23 22  1  0  0  0
 22 20  1  0  0  0
 20 21  2  0  0  0
 20  1  1  0  0  0
  1  2  2  0  0  0
  2  3  1  0  0  0
  3  4  2  0  0  0
  4  7  1  0  0  0
  4  5  1  0  0  0
  7  8  1  0  0  0
  8  9  2  0  0  0
  8 11  1  0  0  0
 11 12  1  0  0  0
 12 13  1  0  0  0
 13 14  2  0  0  0
 14 15  1  0  0  0
 15 16  2  0  0  0
 16 17  1  0  0  0
 16 18  1  0  0  0
 18 19  2  0  0  0
 19 13  1  0  0  0
  5  6  2  0  0  0
  6  1  1  0  0  0
 30 31  1  0  0  0
 31 32  2  0  0  0
 31 33  1  0  0  0
 33 34  1  0  0  0
 33 27  1  0  0  0
 34 25  1  0  0  0
  7 10  1  0  0  0
M  END
>  <minimizedAffinity>
-8.06541

>  <minimizedRMSD>
0.92123

$$$$
ChemDiv-C679-4876 MCULE-1007766327 MolPort-007-656-001 PubChem-46258425 ZINC000020859367 ZINC20859367


 32 36  0  0  0  0  0  0  0  0999 V2000
   15.8503   -8.4160   17.1391 C   0  0  0  0  0  0  0  0  0  0  0  0
   15.9767   -8.3777   15.7421 C   0  0  0  0  0  0  0  0  0  0  0  0
   16.7350   -9.3393   15.0670 C   0  0  0  0  0  0  0  0  0  0  0  0
   17.3742  -10.3515   15.8001 C   0  0  0  0  0  0  0  0  0  0  0  0
   17.2528  -10.3953   17.1910 C   0  0  0  0  0  0  0  0  0  0  0  0
   16.4932   -9.4298   17.8566 C   0  0  0  0  0  0  0  0  0  0  0  0
   13.7069   -7.5533   18.2612 C   0  0  0  0  0  0  0  0  0  0  0  0
   13.0483   -8.5947   17.9908 O   0  0  0  0  0  0  0  0  0  0  0  0
   15.0809   -7.4433   17.8594 N   0  0  0  0  0  0  0  0  0  0  0  0
   15.5450   -6.6104   18.1048 H   0  0  0  0  0  0  0  0  0  0  0  0
   14.2327   -6.9001   21.0553 F   0  0  0  0  0  0  0  0  0  0  0  0
   13.3339   -6.1675   20.3523 C   0  0  0  0  0  0  0  0  0  0  0  0
   13.0486   -6.4487   18.9976 C   0  0  0  0  0  0  0  0  0  0  0  0
   12.1072   -5.6517   18.3260 C   0  0  0  0  0  0  0  0  0  0  0  0
   11.4626   -4.5998   18.9807 C   0  0  0  0  0  0  0  0  0  0  0  0
   11.7514   -4.3302   20.3187 C   0  0  0  0  0  0  0  0  0  0  0  0
   12.6844   -5.1126   21.0014 C   0  0  0  0  0  0  0  0  0  0  0  0
   16.8361   -9.2657   13.6756 O   0  0  0  0  0  0  0  0  0  0  0  0
   17.7210  -10.0873   12.9254 C   0  0  0  0  0  0  0  0  0  0  0  0
   17.6049   -9.7551   11.4810 C   0  0  0  0  0  0  0  0  0  0  0  0
   16.4779  -10.1772   10.7563 C   0  0  0  0  0  0  0  0  0  0  0  0
   16.3776   -9.8273    9.4052 C   0  0  0  0  0  0  0  0  0  0  0  0
   15.3809  -10.1926    8.7270 O   0  0  0  0  0  0  0  0  0  0  0  0
   17.3707   -9.0882    8.8439 N   0  0  0  0  0  0  0  0  0  0  0  0
   17.3930   -8.6846    7.5760 N   0  0  0  0  0  0  0  0  0  0  0  0
   18.5060   -7.9641    7.2881 C   0  0  0  0  0  0  0  0  0  0  0  0
   19.5097   -7.7803    8.6472 S   0  0  0  0  0  0  0  0  0  0  0  0
   18.4385   -8.6896    9.5665 C   0  0  0  0  0  0  0  0  0  0  0  0
   18.5709   -9.0062   10.8777 N   0  0  0  0  0  0  0  0  0  0  0  0
   18.7637   -7.3424    5.9549 C   0  0  0  0  0  0  0  0  0  0  0  0
   20.2459   -7.4097    5.6366 C   0  0  0  0  0  0  0  0  0  0  0  0
   19.2917   -8.3865    4.9881 C   0  0  0  0  0  0  0  0  0  0  0  0
 11 12  1  0  0  0
 12 13  2  0  0  0
 13 14  1  0  0  0
 13  7  1  0  0  0
 14 15  2  0  0  0
 15 16  1  0  0  0
 16 17  2  0  0  0
 17 12  1  0  0  0
  7  8  2  0  0  0
  7  9  1  0  0  0
  9  1  1  0  0  0
  1  2  2  0  0  0
  2  3  1  0  0  0
  3 18  1  0  0  0
  3  4  2  0  0  0
 18 19  1  0  0  0
 19 20  1  0  0  0
 20 21  2  0  0  0
 21 22  1  0  0  0
 22 23  2  0  0  0
 22 24  1  0  0  0
 24 25  1  0  0  0
 25 26  2  0  0  0
 26 27  1  0  0  0
 26 30  1  0  0  0
 27 28  1  0  0  0
 28 29  2  0  0  0
 28 24  1  0  0  0
 29 20  1  0  0  0
 30 31  1  0  0  0
 31 32  1  0  0  0
 32 30  1  0  0  0
  4  5  1  0  0  0
  5  6  2  0  0  0
  6  1  1  0  0  0
  9 10  1  0  0  0
M  END
>  <minimizedAffinity>
-8.06169

>  <minimizedRMSD>
1.44773

$$$$
ChemDiv-D439-4138 MCULE-3124820900 MolPort-007-706-771 PubChem-46268353 ZINC000021797098 ZINC21797098


 35 38  0  0  0  0  0  0  0  0999 V2000
   17.4630  -10.0987   14.3277 C   0  0  0  0  0  0  0  0  0  0  0  0
   16.9733   -9.3319   15.3914 C   0  0  0  0  0  0  0  0  0  0  0  0
   17.0157   -9.8018   16.7104 C   0  0  0  0  0  0  0  0  0  0  0  0
   17.5597  -11.0599   16.9686 C   0  0  0  0  0  0  0  0  0  0  0  0
   18.0554  -11.8405   15.9242 C   0  0  0  0  0  0  0  0  0  0  0  0
   18.0147  -11.3776   14.6054 C   0  0  0  0  0  0  0  0  0  0  0  0
   18.5763  -12.2751   13.5566 C   0  0  0  0  0  0  0  0  0  0  0  0
   16.5140   -9.0286   17.8083 N   0  0  0  0  0  0  0  0  0  0  0  0
   15.5776   -7.9454   17.7396 C   0  0  0  0  0  0  0  0  0  0  0  0
   15.0913   -7.5703   16.6403 O   0  0  0  0  0  0  0  0  0  0  0  0
   16.8476   -9.2666   18.7035 H   0  0  0  0  0  0  0  0  0  0  0  0
   15.1475   -7.2682   18.9953 C   0  0  0  0  0  0  0  0  0  0  0  0
   13.8917   -6.6270   18.8007 O   0  0  0  0  0  0  0  0  0  0  0  0
   12.6580   -7.2920   18.7151 C   0  0  0  0  0  0  0  0  0  0  0  0
   12.1722   -8.1865   19.7035 C   0  0  0  0  0  0  0  0  0  0  0  0
   12.8975   -8.4557   20.9775 C   0  0  0  0  0  0  0  0  0  0  0  0
   10.9335   -8.8114   19.5235 C   0  0  0  0  0  0  0  0  0  0  0  0
   10.1683   -8.5562   18.3844 C   0  0  0  0  0  0  0  0  0  0  0  0
   10.6335   -7.6637   17.4188 C   0  0  0  0  0  0  0  0  0  0  0  0
   11.8687   -7.0345   17.5875 C   0  0  0  0  0  0  0  0  0  0  0  0
   17.3697   -9.5299   13.0472 O   0  0  0  0  0  0  0  0  0  0  0  0
   16.5129   -9.9786   12.0068 C   0  0  0  0  0  0  0  0  0  0  0  0
   18.7773   -8.3026    7.2921 N   0  0  0  0  0  0  0  0  0  0  0  0
   19.7095   -7.4873    7.8454 C   0  0  0  0  0  0  0  0  0  0  0  0
   19.6285   -7.4945    9.2045 N   0  0  0  0  0  0  0  0  0  0  0  0
   18.6101   -8.3497    9.4204 C   0  0  0  0  0  0  0  0  0  0  0  0
   18.1219   -8.7067   10.6335 N   0  0  0  0  0  0  0  0  0  0  0  0
   17.0819   -9.5912   10.6892 C   0  0  0  0  0  0  0  0  0  0  0  0
   16.5180  -10.1095    9.5057 C   0  0  0  0  0  0  0  0  0  0  0  0
   17.0549   -9.7115    8.2753 C   0  0  0  0  0  0  0  0  0  0  0  0
   16.5795  -10.1545    7.1969 O   0  0  0  0  0  0  0  0  0  0  0  0
   18.0960   -8.8360    8.2891 N   0  0  0  0  0  0  0  0  0  0  0  0
   17.5198   -7.5933    5.3149 C   0  0  0  0  0  0  0  0  0  0  0  0
   18.5582   -8.5510    5.8692 C   0  0  0  0  0  0  0  0  0  0  0  0
   19.8579   -8.4125    5.0982 C   0  0  0  0  0  0  0  0  0  0  0  0
 33 34  1  0  0  0
 34 35  1  0  0  0
 34 23  1  0  0  0
 23 24  1  0  0  0
 24 25  2  0  0  0
 25 26  1  0  0  0
 26 27  2  0  0  0
 27 28  1  0  0  0
 28 22  1  0  0  0
 28 29  2  0  0  0
 22 21  1  0  0  0
 21  1  1  0  0  0
  1  2  2  0  0  0
  2  3  1  0  0  0
  3  8  1  0  0  0
  3  4  2  0  0  0
  8  9  1  0  0  0
  9 10  2  0  0  0
  9 12  1  0  0  0
 12 13  1  0  0  0
 13 14  1  0  0  0
 14 15  2  0  0  0
 15 16  1  0  0  0
 15 17  1  0  0  0
 17 18  2  0  0  0
 18 19  1  0  0  0
 19 20  2  0  0  0
 20 14  1  0  0  0
  4  5  1  0  0  0
  5  6  2  0  0  0
  6  7  1  0  0  0
  6  1  1  0  0  0
 29 30  1  0  0  0
 30 31  2  0  0  0
 30 32  1  0  0  0
 32 23  1  0  0  0
 32 26  1  0  0  0
  8 11  1  0  0  0
M  END
>  <minimizedAffinity>
-8.04390

>  <minimizedRMSD>
1.76698

$$$$
ChemDiv-C679-4696 MCULE-7443956540 MolPort-007-655-966 PubChem-46258406 ZINC000013368256


 33 36  0  0  0  0  0  0  0  0999 V2000
   17.3482   -9.7401   15.0085 C   0  0  0  0  0  0  0  0  0  0  0  0
   18.7323   -9.5813   15.1803 C   0  0  0  0  0  0  0  0  0  0  0  0
   19.2314   -8.9641   16.3296 C   0  0  0  0  0  0  0  0  0  0  0  0
   18.3519   -8.5012   17.3121 C   0  0  0  0  0  0  0  0  0  0  0  0
   16.9702   -8.6515   17.1535 C   0  0  0  0  0  0  0  0  0  0  0  0
   16.4761   -9.2736   15.9967 C   0  0  0  0  0  0  0  0  0  0  0  0
   16.1004   -8.1553   18.1798 N   0  0  0  0  0  0  0  0  0  0  0  0
   14.8035   -7.5646   17.9999 C   0  0  0  0  0  0  0  0  0  0  0  0
   14.3101   -7.4388   16.8457 O   0  0  0  0  0  0  0  0  0  0  0  0
   16.4267   -8.2270   19.1059 H   0  0  0  0  0  0  0  0  0  0  0  0
   14.0435   -7.1021   19.1742 C   0  0  0  0  0  0  0  0  0  0  0  0
   14.3595   -7.5770   20.4557 C   0  0  0  0  0  0  0  0  0  0  0  0
   13.6414   -7.1356   21.5707 C   0  0  0  0  0  0  0  0  0  0  0  0
   12.6032   -6.2130   21.4131 C   0  0  0  0  0  0  0  0  0  0  0  0
   12.2815   -5.7338   20.1405 C   0  0  0  0  0  0  0  0  0  0  0  0
   12.9999   -6.1760   19.0252 C   0  0  0  0  0  0  0  0  0  0  0  0
   11.8386   -5.7444   22.5983 C   0  0  0  0  0  0  0  0  0  0  0  0
   16.8161  -10.3527   13.8712 O   0  0  0  0  0  0  0  0  0  0  0  0
   17.6182  -11.0567   12.9315 C   0  0  0  0  0  0  0  0  0  0  0  0
   17.3953   -9.1085    9.1987 N   0  0  0  0  0  0  0  0  0  0  0  0
   17.4671   -8.4283    8.0573 N   0  0  0  0  0  0  0  0  0  0  0  0
   18.6453   -7.7694    7.9316 C   0  0  0  0  0  0  0  0  0  0  0  0
   19.6547   -8.0020    9.2760 S   0  0  0  0  0  0  0  0  0  0  0  0
   18.4920   -8.9915    9.9773 C   0  0  0  0  0  0  0  0  0  0  0  0
   18.5837   -9.6138   11.1778 N   0  0  0  0  0  0  0  0  0  0  0  0
   17.5437  -10.3836   11.6080 C   0  0  0  0  0  0  0  0  0  0  0  0
   16.3861  -10.5168   10.8229 C   0  0  0  0  0  0  0  0  0  0  0  0
   16.3302   -9.8572    9.5903 C   0  0  0  0  0  0  0  0  0  0  0  0
   15.3072   -9.9579    8.8622 O   0  0  0  0  0  0  0  0  0  0  0  0
   18.9750   -6.8981    6.7717 C   0  0  0  0  0  0  0  0  0  0  0  0
   20.1873   -7.4497    6.0395 C   0  0  0  0  0  0  0  0  0  0  0  0
   19.9736   -7.3881    4.5379 C   0  0  0  0  0  0  0  0  0  0  0  0
   18.8401   -8.3105    4.1263 C   0  0  0  0  0  0  0  0  0  0  0  0
 20 21  1  0  0  0
 21 22  2  0  0  0
 22 23  1  0  0  0
 23 24  1  0  0  0
 24 25  2  0  0  0
 25 26  1  0  0  0
 26 19  1  0  0  0
 19 18  1  0  0  0
 18  1  1  0  0  0
  1  2  2  0  0  0
  2  3  1  0  0  0
  3  4  2  0  0  0
  4  5  1  0  0  0
  5  6  2  0  0  0
  5  7  1  0  0  0
  7  8  1  0  0  0
  8  9  2  0  0  0
  8 11  1  0  0  0
 11 12  2  0  0  0
 12 13  1  0  0  0
 13 14  2  0  0  0
 14 15  1  0  0  0
 15 16  2  0  0  0
 14 17  1  0  0  0
 26 27  2  0  0  0
 27 28  1  0  0  0
 28 29  2  0  0  0
 22 30  1  0  0  0
 30 31  1  0  0  0
 31 32  1  0  0  0
 32 33  1  0  0  0
 24 20  1  0  0  0
  6  1  1  0  0  0
 16 11  1  0  0  0
 28 20  1  0  0  0
  7 10  1  0  0  0
M  END
>  <minimizedAffinity>
-8.04335

>  <minimizedRMSD>
1.80209

$$$$
ChemDiv-C679-4734 MCULE-4750321873 MolPort-007-655-987 PubChem-46258418 ZINC000013368285


 33 36  0  0  0  0  0  0  0  0999 V2000
   17.4087   -9.7814   14.9397 C   0  0  0  0  0  0  0  0  0  0  0  0
   18.7792   -9.4881   15.0208 C   0  0  0  0  0  0  0  0  0  0  0  0
   19.2981   -8.8667   16.1590 C   0  0  0  0  0  0  0  0  0  0  0  0
   18.4523   -8.5352   17.2209 C   0  0  0  0  0  0  0  0  0  0  0  0
   17.0856   -8.8261   17.1560 C   0  0  0  0  0  0  0  0  0  0  0  0
   16.5708   -9.4495   16.0094 C   0  0  0  0  0  0  0  0  0  0  0  0
   16.2495   -8.4644   18.2641 N   0  0  0  0  0  0  0  0  0  0  0  0
   15.0495   -7.6767   18.2155 C   0  0  0  0  0  0  0  0  0  0  0  0
   14.5925   -7.2715   17.1123 O   0  0  0  0  0  0  0  0  0  0  0  0
   16.5273   -8.7901   19.1507 H   0  0  0  0  0  0  0  0  0  0  0  0
   14.3379   -7.3519   19.4647 C   0  0  0  0  0  0  0  0  0  0  0  0
   13.1482   -6.6075   19.4323 C   0  0  0  0  0  0  0  0  0  0  0  0
   12.4742   -6.2987   20.6181 C   0  0  0  0  0  0  0  0  0  0  0  0
   12.9842   -6.7324   21.8449 C   0  0  0  0  0  0  0  0  0  0  0  0
   14.1687   -7.4728   21.8865 C   0  0  0  0  0  0  0  0  0  0  0  0
   14.6611   -7.8967   23.0756 F   0  0  0  0  0  0  0  0  0  0  0  0
   14.8434   -7.7809   20.7008 C   0  0  0  0  0  0  0  0  0  0  0  0
   16.8558  -10.3955   13.8137 O   0  0  0  0  0  0  0  0  0  0  0  0
   17.6426  -11.0818   12.8482 C   0  0  0  0  0  0  0  0  0  0  0  0
   17.4285   -9.0912    9.1360 N   0  0  0  0  0  0  0  0  0  0  0  0
   17.5019   -8.3972    8.0027 N   0  0  0  0  0  0  0  0  0  0  0  0
   18.6812   -7.7400    7.8847 C   0  0  0  0  0  0  0  0  0  0  0  0
   19.6915   -7.9912    9.2266 S   0  0  0  0  0  0  0  0  0  0  0  0
   18.5261   -8.9860    9.9161 C   0  0  0  0  0  0  0  0  0  0  0  0
   18.6121   -9.6163   11.1127 N   0  0  0  0  0  0  0  0  0  0  0  0
   17.5633  -10.3756   11.5414 C   0  0  0  0  0  0  0  0  0  0  0  0
   16.4109  -10.5057   10.7489 C   0  0  0  0  0  0  0  0  0  0  0  0
   16.3610   -9.8389    9.5197 C   0  0  0  0  0  0  0  0  0  0  0  0
   15.3401   -9.9317    8.7878 O   0  0  0  0  0  0  0  0  0  0  0  0
   19.0108   -6.8543    6.7365 C   0  0  0  0  0  0  0  0  0  0  0  0
   19.5617   -7.6854    5.5884 C   0  0  0  0  0  0  0  0  0  0  0  0
   20.9459   -7.1976    5.2009 C   0  0  0  0  0  0  0  0  0  0  0  0
   20.8456   -5.9782    4.2967 C   0  0  0  0  0  0  0  0  0  0  0  0
 20 21  1  0  0  0
 21 22  2  0  0  0
 22 23  1  0  0  0
 23 24  1  0  0  0
 24 25  2  0  0  0
 25 26  1  0  0  0
 26 19  1  0  0  0
 19 18  1  0  0  0
 18  1  1  0  0  0
  1  2  2  0  0  0
  2  3  1  0  0  0
  3  4  2  0  0  0
  4  5  1  0  0  0
  5  6  2  0  0  0
  5  7  1  0  0  0
  7  8  1  0  0  0
  8  9  2  0  0  0
  8 11  1  0  0  0
 11 12  2  0  0  0
 12 13  1  0  0  0
 13 14  2  0  0  0
 14 15  1  0  0  0
 15 16  1  0  0  0
 15 17  2  0  0  0
 26 27  2  0  0  0
 27 28  1  0  0  0
 28 29  2  0  0  0
 22 30  1  0  0  0
 30 31  1  0  0  0
 31 32  1  0  0  0
 32 33  1  0  0  0
 24 20  1  0  0  0
  6  1  1  0  0  0
 17 11  1  0  0  0
 28 20  1  0  0  0
  7 10  1  0  0  0
M  END
>  <minimizedAffinity>
-8.03643

>  <minimizedRMSD>
2.02919

$$$$
ChemDiv-G355-3255 MCULE-3279734240 MolPort-010-743-019 PubChem-50793981 ZINC000035428391 ZINC35428391


 31 34  0  0  0  0  0  0  0  0999 V2000
   17.0732   -9.7938   14.9510 C   0  0  0  0  0  0  0  0  0  0  0  0
   16.4129   -8.8249   15.7154 C   0  0  0  0  0  0  0  0  0  0  0  0
   16.2634   -8.9671   17.1012 C   0  0  0  0  0  0  0  0  0  0  0  0
   16.7756  -10.1026   17.7292 C   0  0  0  0  0  0  0  0  0  0  0  0
   17.4267  -11.0861   16.9844 C   0  0  0  0  0  0  0  0  0  0  0  0
   17.5829  -10.9470   15.6021 C   0  0  0  0  0  0  0  0  0  0  0  0
   18.2567  -12.0622   14.8798 C   0  0  0  0  0  0  0  0  0  0  0  0
   15.6017   -7.9781   17.9008 N   0  0  0  0  0  0  0  0  0  0  0  0
   14.1957   -7.8809   18.1699 C   0  0  0  0  0  0  0  0  0  0  0  0
   13.3962   -8.7141   17.6624 O   0  0  0  0  0  0  0  0  0  0  0  0
   16.1748   -7.2902   18.3101 H   0  0  0  0  0  0  0  0  0  0  0  0
   13.6571   -6.7802   19.0060 C   0  0  0  0  0  0  0  0  0  0  0  0
   13.9899   -6.5951   20.3730 C   0  0  0  0  0  0  0  0  0  0  0  0
   15.0113   -7.6996   21.2847 Cl  0  0  0  0  0  0  0  0  0  0  0  0
   13.4519   -5.5131   21.0781 C   0  0  0  0  0  0  0  0  0  0  0  0
   12.5871   -4.6139   20.4532 C   0  0  0  0  0  0  0  0  0  0  0  0
   12.2440   -4.7952   19.1150 C   0  0  0  0  0  0  0  0  0  0  0  0
   12.7737   -5.8705   18.4002 C   0  0  0  0  0  0  0  0  0  0  0  0
   17.1752   -9.5527   13.5722 O   0  0  0  0  0  0  0  0  0  0  0  0
   18.1428  -10.1393   12.7128 C   0  0  0  0  0  0  0  0  0  0  0  0
   19.1231   -6.9432    6.2162 C   0  0  0  0  0  0  0  0  0  0  0  0
   18.7215   -7.6654    7.4515 C   0  0  0  0  0  0  0  0  0  0  0  0
   19.4784   -7.7294    8.6267 C   0  0  0  0  0  0  0  0  0  0  0  0
   18.6548   -8.5019    9.4230 C   0  0  0  0  0  0  0  0  0  0  0  0
   18.8739   -8.9061   10.6980 N   0  0  0  0  0  0  0  0  0  0  0  0
   17.9270   -9.6743   11.3169 C   0  0  0  0  0  0  0  0  0  0  0  0
   16.7467  -10.0410   10.6390 C   0  0  0  0  0  0  0  0  0  0  0  0
   16.5674   -9.6012    9.3220 C   0  0  0  0  0  0  0  0  0  0  0  0
   15.5312   -9.9026    8.6739 O   0  0  0  0  0  0  0  0  0  0  0  0
   17.5422   -8.8424    8.7667 N   0  0  0  0  0  0  0  0  0  0  0  0
   17.5918   -8.3333    7.5786 O   0  0  0  0  0  0  0  0  0  0  0  0
 21 22  1  0  0  0
 22 23  2  0  0  0
 23 24  1  0  0  0
 24 25  2  0  0  0
 25 26  1  0  0  0
 26 20  1  0  0  0
 26 27  2  0  0  0
 20 19  1  0  0  0
 19  1  1  0  0  0
  1  2  2  0  0  0
  2  3  1  0  0  0
  3  8  1  0  0  0
  3  4  2  0  0  0
  8  9  1  0  0  0
  9 10  2  0  0  0
  9 12  1  0  0  0
 12 13  2  0  0  0
 13 14  1  0  0  0
 13 15  1  0  0  0
 15 16  2  0  0  0
 16 17  1  0  0  0
 17 18  2  0  0  0
 18 12  1  0  0  0
  4  5  1  0  0  0
  5  6  2  0  0  0
  6  7  1  0  0  0
  6  1  1  0  0  0
 27 28  1  0  0  0
 28 29  2  0  0  0
 28 30  1  0  0  0
 30 31  1  0  0  0
 30 24  1  0  0  0
 31 22  1  0  0  0
  8 11  1  0  0  0
M  END
>  <minimizedAffinity>
-8.02715

>  <minimizedRMSD>
1.48726

$$$$
ChemDiv-C679-4530 MCULE-8109918817 MolPort-007-655-912 PubChem-46258375 ZINC000013368178


 33 36  0  0  0  0  0  0  0  0999 V2000
   16.7045   -9.3508   15.0650 C   0  0  0  0  0  0  0  0  0  0  0  0
   17.4019  -10.3308   15.7887 C   0  0  0  0  0  0  0  0  0  0  0  0
   17.3228  -10.3644   17.1829 C   0  0  0  0  0  0  0  0  0  0  0  0
   16.5477   -9.4202   17.8614 C   0  0  0  0  0  0  0  0  0  0  0  0
   15.8474   -8.4381   17.1534 C   0  0  0  0  0  0  0  0  0  0  0  0
   15.9313   -8.4104   15.7530 C   0  0  0  0  0  0  0  0  0  0  0  0
   15.0629   -7.4872   17.8863 N   0  0  0  0  0  0  0  0  0  0  0  0
   13.6672   -7.5873   18.2088 C   0  0  0  0  0  0  0  0  0  0  0  0
   12.9938   -8.5888   17.8426 O   0  0  0  0  0  0  0  0  0  0  0  0
   15.5308   -6.6803   18.2015 H   0  0  0  0  0  0  0  0  0  0  0  0
   13.0159   -6.5100   18.9749 C   0  0  0  0  0  0  0  0  0  0  0  0
   12.0498   -5.6917   18.3700 C   0  0  0  0  0  0  0  0  0  0  0  0
   11.4327   -4.6700   19.0976 C   0  0  0  0  0  0  0  0  0  0  0  0
   11.7770   -4.4587   20.4353 C   0  0  0  0  0  0  0  0  0  0  0  0
   12.7381   -5.2688   21.0457 C   0  0  0  0  0  0  0  0  0  0  0  0
   13.3552   -6.2906   20.3182 C   0  0  0  0  0  0  0  0  0  0  0  0
   11.1790   -3.4687   21.1403 F   0  0  0  0  0  0  0  0  0  0  0  0
   16.7618   -9.2890   13.6704 O   0  0  0  0  0  0  0  0  0  0  0  0
   17.4760  -10.2375   12.8886 C   0  0  0  0  0  0  0  0  0  0  0  0
   17.4822   -8.9551    8.8721 N   0  0  0  0  0  0  0  0  0  0  0  0
   17.6143   -8.4636    7.6424 N   0  0  0  0  0  0  0  0  0  0  0  0
   18.7279   -7.7015    7.5160 C   0  0  0  0  0  0  0  0  0  0  0  0
   19.6021   -7.6040    8.9680 S   0  0  0  0  0  0  0  0  0  0  0  0
   18.4690   -8.5911    9.7178 C   0  0  0  0  0  0  0  0  0  0  0  0
   18.4868   -8.9989   11.0102 N   0  0  0  0  0  0  0  0  0  0  0  0
   17.4862   -9.8043   11.4665 C   0  0  0  0  0  0  0  0  0  0  0  0
   16.4414  -10.1922   10.6114 C   0  0  0  0  0  0  0  0  0  0  0  0
   16.4589   -9.7488    9.2844 C   0  0  0  0  0  0  0  0  0  0  0  0
   15.5384  -10.0815    8.4915 O   0  0  0  0  0  0  0  0  0  0  0  0
   19.1082   -7.0036    6.2481 C   0  0  0  0  0  0  0  0  0  0  0  0
   19.9544   -7.8681    5.3115 C   0  0  0  0  0  0  0  0  0  0  0  0
   21.2284   -7.1625    4.8827 C   0  0  0  0  0  0  0  0  0  0  0  0
   19.1666   -8.3298    4.0985 C   0  0  0  0  0  0  0  0  0  0  0  0
 20 21  1  0  0  0
 21 22  2  0  0  0
 22 23  1  0  0  0
 23 24  1  0  0  0
 24 25  2  0  0  0
 25 26  1  0  0  0
 26 19  1  0  0  0
 19 18  1  0  0  0
 18  1  1  0  0  0
  1  2  2  0  0  0
  2  3  1  0  0  0
  3  4  2  0  0  0
  4  5  1  0  0  0
  5  6  2  0  0  0
  5  7  1  0  0  0
  7  8  1  0  0  0
  8  9  2  0  0  0
  8 11  1  0  0  0
 11 12  2  0  0  0
 12 13  1  0  0  0
 13 14  2  0  0  0
 14 15  1  0  0  0
 15 16  2  0  0  0
 14 17  1  0  0  0
 26 27  2  0  0  0
 27 28  1  0  0  0
 28 29  2  0  0  0
 22 30  1  0  0  0
 30 31  1  0  0  0
 31 32  1  0  0  0
 31 33  1  0  0  0
 24 20  1  0  0  0
  6  1  1  0  0  0
 16 11  1  0  0  0
 28 20  1  0  0  0
  7 10  1  0  0  0
M  END
>  <minimizedAffinity>
-8.02149

>  <minimizedRMSD>
1.87369

$$$$
ChemDiv-F797-0321 MCULE-3093466436 MolPort-009-704-190 PubChem-30848759 ZINC000023125503


 36 39  0  0  0  0  0  0  0  0999 V2000
   17.9894  -10.5264   12.0678 C   0  0  0  0  0  0  0  0  0  0  0  0
   17.8163  -10.4842   13.5476 C   0  0  0  0  0  0  0  0  0  0  0  0
   16.5171  -10.2795   14.1074 N   0  0  0  0  0  0  0  0  0  0  0  0
   18.8162  -10.6553   14.2938 O   0  0  0  0  0  0  0  0  0  0  0  0
   15.7477  -10.1921   13.4996 H   0  0  0  0  0  0  0  0  0  0  0  0
   16.2893  -10.1956   15.5434 C   0  0  0  0  0  0  0  0  0  0  0  0
   16.7964   -8.8664   16.0871 C   0  0  0  0  0  0  0  0  0  0  0  0
   15.8687   -8.3198   17.1214 C   0  0  0  0  0  0  0  0  0  0  0  0
   14.6091   -7.8457   16.7418 C   0  0  0  0  0  0  0  0  0  0  0  0
   13.7360   -7.3257   17.7013 C   0  0  0  0  0  0  0  0  0  0  0  0
   14.1219   -7.2723   19.0456 C   0  0  0  0  0  0  0  0  0  0  0  0
   15.3864   -7.7359   19.4250 C   0  0  0  0  0  0  0  0  0  0  0  0
   16.2594   -8.2563   18.4648 C   0  0  0  0  0  0  0  0  0  0  0  0
   13.0344   -6.6161   20.2559 S   0  0  0  0  0  0  0  0  0  0  0  0
   13.8553   -5.4027   21.1702 N   0  0  0  0  0  0  0  0  0  0  0  0
   12.5770   -7.7166   21.1706 O   0  0  0  0  0  0  0  0  0  0  0  0
   11.8357   -6.0025   19.5883 O   0  0  0  0  0  0  0  0  0  0  0  0
   14.6702   -5.8134   21.6259 H   0  0  0  0  0  0  0  0  0  0  0  0
   13.2247   -5.0251   21.8774 H   0  0  0  0  0  0  0  0  0  0  0  0
   17.1365   -9.4640   11.3856 C   0  0  0  0  0  0  0  0  0  0  0  0
   17.8981   -8.8912    7.7859 C   0  0  0  0  0  0  0  0  0  0  0  0
   17.2403   -9.3404    8.9238 C   0  0  0  0  0  0  0  0  0  0  0  0
   16.1887  -10.0309    8.8275 O   0  0  0  0  0  0  0  0  0  0  0  0
   17.7672   -9.0111   10.1499 N   0  0  0  0  0  0  0  0  0  0  0  0
   18.9076   -8.2520   10.2440 C   0  0  0  0  0  0  0  0  0  0  0  0
   19.5512   -7.8071    9.1241 N   0  0  0  0  0  0  0  0  0  0  0  0
   19.0318   -8.1400    7.9204 C   0  0  0  0  0  0  0  0  0  0  0  0
   19.4597   -7.8419    6.6593 C   0  0  0  0  0  0  0  0  0  0  0  0
   18.5449   -8.4418    5.8153 C   0  0  0  0  0  0  0  0  0  0  0  0
   18.6720   -8.3402    4.4313 C   0  0  0  0  0  0  0  0  0  0  0  0
   19.7602   -7.6054    3.9245 C   0  0  0  0  0  0  0  0  0  0  0  0
   20.6899   -6.9947    4.7959 C   0  0  0  0  0  0  0  0  0  0  0  0
   21.7269   -6.2897    4.2845 F   0  0  0  0  0  0  0  0  0  0  0  0
   20.5456   -7.1093    6.1905 C   0  0  0  0  0  0  0  0  0  0  0  0
   17.5674   -9.0984    6.4890 N   0  0  0  0  0  0  0  0  0  0  0  0
   16.8044   -9.6024    6.1243 H   0  0  0  0  0  0  0  0  0  0  0  0
 21 22  1  0  0  0
 22 23  2  0  0  0
 22 24  1  0  0  0
 24 20  1  0  0  0
 20  1  1  0  0  0
  1  2  1  0  0  0
  2  3  1  0  0  0
  3  6  1  0  0  0
  6  7  1  0  0  0
  7  8  1  0  0  0
  8  9  2  0  0  0
  9 10  1  0  0  0
 10 11  2  0  0  0
 11 12  1  0  0  0
 12 13  2  0  0  0
 11 14  1  0  0  0
 14 15  1  0  0  0
 14 16  2  0  0  0
 14 17  2  0  0  0
  2  4  2  0  0  0
 24 25  1  0  0  0
 25 26  2  0  0  0
 26 27  1  0  0  0
 27 28  1  0  0  0
 28 29  2  0  0  0
 29 30  1  0  0  0
 30 31  2  0  0  0
 31 32  1  0  0  0
 32 33  1  0  0  0
 32 34  2  0  0  0
 29 35  1  0  0  0
 27 21  2  0  0  0
 34 28  1  0  0  0
 35 21  1  0  0  0
 13  8  1  0  0  0
  3  5  1  0  0  0
 15 18  1  0  0  0
 15 19  1  0  0  0
 35 36  1  0  0  0
M  END
>  <minimizedAffinity>
-8.01124

>  <minimizedRMSD>
3.51279

$$$$
ChemDiv-G756-0129 MolPort-007-878-995 PubChem-46355895 ZINC000021099524 ZINC21099524


 33 38  0  0  0  0  0  0  0  0999 V2000
   16.5751   -9.7797   17.0802 C   0  0  0  0  0  0  0  0  0  0  0  0
   16.6254   -9.3918   15.7326 C   0  0  0  0  0  0  0  0  0  0  0  0
   17.4417  -10.0721   14.8235 C   0  0  0  0  0  0  0  0  0  0  0  0
   18.2159  -11.1547   15.2696 C   0  0  0  0  0  0  0  0  0  0  0  0
   18.1696  -11.5472   16.6094 C   0  0  0  0  0  0  0  0  0  0  0  0
   17.3510  -10.8610   17.5103 C   0  0  0  0  0  0  0  0  0  0  0  0
   14.9239   -7.3848   16.6694 O   0  0  0  0  0  0  0  0  0  0  0  0
   14.9205   -7.9520   17.7966 C   0  0  0  0  0  0  0  0  0  0  0  0
   15.7454   -9.1036   18.0344 N   0  0  0  0  0  0  0  0  0  0  0  0
   15.7406   -9.4672   18.9493 H   0  0  0  0  0  0  0  0  0  0  0  0
   14.1140   -7.3732   18.9283 C   0  0  0  0  0  0  0  0  0  0  0  0
   15.0178   -7.2289   20.1666 C   0  0  0  0  0  0  0  0  0  0  0  0
   14.2182   -6.6529   21.3460 C   0  0  0  0  0  0  0  0  0  0  0  0
   13.6641   -5.2733   20.9560 C   0  0  0  0  0  0  0  0  0  0  0  0
   12.7457   -5.4031   19.7306 C   0  0  0  0  0  0  0  0  0  0  0  0
   11.5830   -6.3500   20.0665 C   0  0  0  0  0  0  0  0  0  0  0  0
   12.1282   -7.7344   20.4505 C   0  0  0  0  0  0  0  0  0  0  0  0
   13.0491   -7.5954   21.6732 C   0  0  0  0  0  0  0  0  0  0  0  0
   12.9335   -8.3049   19.2724 C   0  0  0  0  0  0  0  0  0  0  0  0
   13.5480   -5.9853   18.5560 C   0  0  0  0  0  0  0  0  0  0  0  0
   17.4642   -9.6540   13.4906 O   0  0  0  0  0  0  0  0  0  0  0  0
   18.4556  -10.0849   12.5675 C   0  0  0  0  0  0  0  0  0  0  0  0
   18.0617   -9.6859   11.1906 C   0  0  0  0  0  0  0  0  0  0  0  0
   16.8449  -10.1095   10.6646 C   0  0  0  0  0  0  0  0  0  0  0  0
   16.4879   -9.6983    9.3813 C   0  0  0  0  0  0  0  0  0  0  0  0
   15.3872  -10.0847    8.9007 O   0  0  0  0  0  0  0  0  0  0  0  0
   17.3242   -8.8867    8.6620 N   0  0  0  0  0  0  0  0  0  0  0  0
   16.9732   -8.4841    7.4040 C   0  0  0  0  0  0  0  0  0  0  0  0
   17.8126   -7.6545    6.6585 C   0  0  0  0  0  0  0  0  0  0  0  0
   19.0218   -7.2344    7.2089 C   0  0  0  0  0  0  0  0  0  0  0  0
   19.3795   -7.6450    8.4917 C   0  0  0  0  0  0  0  0  0  0  0  0
   18.5185   -8.4760    9.2124 C   0  0  0  0  0  0  0  0  0  0  0  0
   18.8691   -8.8747   10.4623 N   0  0  0  0  0  0  0  0  0  0  0  0
  7  8  2  0  0  0
  8  9  1  0  0  0
  9  1  1  0  0  0
  1  2  2  0  0  0
  2  3  1  0  0  0
  3 21  1  0  0  0
  3  4  2  0  0  0
 21 22  1  0  0  0
 22 23  1  0  0  0
 23 24  2  0  0  0
 24 25  1  0  0  0
 25 26  2  0  0  0
 25 27  1  0  0  0
 27 28  1  0  0  0
 28 29  2  0  0  0
 29 30  1  0  0  0
 30 31  2  0  0  0
 31 32  1  0  0  0
 32 33  2  0  0  0
 32 27  1  0  0  0
 33 23  1  0  0  0
  4  5  1  0  0  0
  5  6  2  0  0  0
  6  1  1  0  0  0
 11  8  1  0  0  0
 11 12  1  0  0  0
 13 12  1  0  0  0
 13 14  1  0  0  0
 15 14  1  0  0  0
 15 16  1  0  0  0
 15 20  1  0  0  0
 17 16  1  0  0  0
 17 18  1  0  0  0
 17 19  1  0  0  0
 18 13  1  0  0  0
 19 11  1  0  0  0
 20 11  1  0  0  0
  9 10  1  0  0  0
M  END
>  <minimizedAffinity>
-7.99206

>  <minimizedRMSD>
1.00981

$$$$
ChemDiv-G756-0993 MolPort-007-879-544 MolPort-019-841-119 PubChem-46356353 ZINC000033068010 ZINC33068010


 34 39  0  0  0  0  0  0  0  0999 V2000
   17.3854  -10.0408   14.6589 C   0  0  0  0  0  0  0  0  0  0  0  0
   18.1622  -11.1385   15.0617 C   0  0  0  0  0  0  0  0  0  0  0  0
   18.1367  -11.5679   16.3908 C   0  0  0  0  0  0  0  0  0  0  0  0
   17.3363  -10.9038   17.3240 C   0  0  0  0  0  0  0  0  0  0  0  0
   16.5583   -9.8077   16.9372 C   0  0  0  0  0  0  0  0  0  0  0  0
   16.5877   -9.3827   15.6002 C   0  0  0  0  0  0  0  0  0  0  0  0
   15.7478   -9.1552   17.9238 N   0  0  0  0  0  0  0  0  0  0  0  0
   14.9387   -7.9831   17.7369 C   0  0  0  0  0  0  0  0  0  0  0  0
   14.9397   -7.3751   16.6310 O   0  0  0  0  0  0  0  0  0  0  0  0
   15.7456   -9.5525   18.8245 H   0  0  0  0  0  0  0  0  0  0  0  0
   14.1523   -7.4345   18.8973 C   0  0  0  0  0  0  0  0  0  0  0  0
   15.0531   -7.4062   20.1459 C   0  0  0  0  0  0  0  0  0  0  0  0
   14.2731   -6.8640   21.3540 C   0  0  0  0  0  0  0  0  0  0  0  0
   13.0589   -7.7683   21.6197 C   0  0  0  0  0  0  0  0  0  0  0  0
   12.1412   -7.7914   20.3871 C   0  0  0  0  0  0  0  0  0  0  0  0
   11.6638   -6.3626   20.0837 C   0  0  0  0  0  0  0  0  0  0  0  0
   12.8718   -5.4531   19.8093 C   0  0  0  0  0  0  0  0  0  0  0  0
   13.7867   -5.4393   21.0443 C   0  0  0  0  0  0  0  0  0  0  0  0
   13.6542   -6.0019   18.6057 C   0  0  0  0  0  0  0  0  0  0  0  0
   12.9272   -8.3285   19.1804 C   0  0  0  0  0  0  0  0  0  0  0  0
   17.3878   -9.5857   13.3381 O   0  0  0  0  0  0  0  0  0  0  0  0
   18.5468   -9.6223   12.5157 C   0  0  0  0  0  0  0  0  0  0  0  0
   20.0627   -7.0247    5.8277 C   0  0  0  0  0  0  0  0  0  0  0  0
   19.1422   -7.7415    6.7480 C   0  0  0  0  0  0  0  0  0  0  0  0
   19.4990   -7.9350    8.0812 C   0  0  0  0  0  0  0  0  0  0  0  0
   18.6241   -8.6108    8.9351 C   0  0  0  0  0  0  0  0  0  0  0  0
   18.9739   -8.7985   10.2338 N   0  0  0  0  0  0  0  0  0  0  0  0
   18.1533   -9.4549   11.0918 C   0  0  0  0  0  0  0  0  0  0  0  0
   16.9239   -9.9337   10.6488 C   0  0  0  0  0  0  0  0  0  0  0  0
   16.5680   -9.7392    9.3151 C   0  0  0  0  0  0  0  0  0  0  0  0
   15.4559  -10.1767    8.9102 O   0  0  0  0  0  0  0  0  0  0  0  0
   17.4175   -9.0816    8.4658 N   0  0  0  0  0  0  0  0  0  0  0  0
   17.0675   -8.8917    7.1585 C   0  0  0  0  0  0  0  0  0  0  0  0
   17.9206   -8.2210    6.2801 C   0  0  0  0  0  0  0  0  0  0  0  0
 23 24  1  0  0  0
 24 25  2  0  0  0
 25 26  1  0  0  0
 26 27  2  0  0  0
 27 28  1  0  0  0
 28 22  1  0  0  0
 28 29  2  0  0  0
 22 21  1  0  0  0
 21  1  1  0  0  0
  1  2  2  0  0  0
  2  3  1  0  0  0
  3  4  2  0  0  0
  4  5  1  0  0  0
  5  7  1  0  0  0
  5  6  2  0  0  0
  7  8  1  0  0  0
  8  9  2  0  0  0
 11  8  1  0  0  0
 11 12  1  0  0  0
 13 12  1  0  0  0
 13 14  1  0  0  0
 15 14  1  0  0  0
 15 16  1  0  0  0
 15 20  1  0  0  0
 17 16  1  0  0  0
 17 18  1  0  0  0
 17 19  1  0  0  0
 18 13  1  0  0  0
 19 11  1  0  0  0
 20 11  1  0  0  0
  6  1  1  0  0  0
 29 30  1  0  0  0
 30 31  2  0  0  0
 30 32  1  0  0  0
 32 33  1  0  0  0
 32 26  1  0  0  0
 33 34  2  0  0  0
 34 24  1  0  0  0
  7 10  1  0  0  0
M  END
>  <minimizedAffinity>
-7.97793

>  <minimizedRMSD>
1.10359

$$$$
ChemDiv-C679-4212 MCULE-7864862737 MolPort-007-655-821 PubChem-46258331 ZINC000013368032 ZINC13368032


 33 36  0  0  0  0  0  0  0  0999 V2000
   16.8451  -10.0141   16.5668 C   0  0  0  0  0  0  0  0  0  0  0  0
   16.8646   -9.5343   15.2484 C   0  0  0  0  0  0  0  0  0  0  0  0
   17.4370  -10.2907   14.2210 C   0  0  0  0  0  0  0  0  0  0  0  0
   17.9973  -11.5431   14.5181 C   0  0  0  0  0  0  0  0  0  0  0  0
   17.9797  -12.0280   15.8282 C   0  0  0  0  0  0  0  0  0  0  0  0
   17.4047  -11.2645   16.8481 C   0  0  0  0  0  0  0  0  0  0  0  0
   15.3988   -8.1185   17.5175 C   0  0  0  0  0  0  0  0  0  0  0  0
   15.1079   -7.6547   16.3821 O   0  0  0  0  0  0  0  0  0  0  0  0
   16.2570   -9.2636   17.6386 N   0  0  0  0  0  0  0  0  0  0  0  0
   16.4633   -9.5651   18.5528 H   0  0  0  0  0  0  0  0  0  0  0  0
   13.4717   -7.0684   18.8081 C   0  0  0  0  0  0  0  0  0  0  0  0
   14.8173   -7.5152   18.7339 C   0  0  0  0  0  0  0  0  0  0  0  0
   15.6159   -7.4602   19.8860 C   0  0  0  0  0  0  0  0  0  0  0  0
   15.0933   -7.0078   21.0985 C   0  0  0  0  0  0  0  0  0  0  0  0
   13.7582   -6.6125   21.1774 C   0  0  0  0  0  0  0  0  0  0  0  0
   12.9532   -6.6460   20.0379 C   0  0  0  0  0  0  0  0  0  0  0  0
   11.2281   -7.2253   17.7964 C   0  0  0  0  0  0  0  0  0  0  0  0
   12.6279   -7.0075   17.6956 O   0  0  0  0  0  0  0  0  0  0  0  0
   17.4326   -9.7790   12.9212 O   0  0  0  0  0  0  0  0  0  0  0  0
   18.6172   -9.3551   12.2593 C   0  0  0  0  0  0  0  0  0  0  0  0
   18.3553   -9.2240   10.8017 C   0  0  0  0  0  0  0  0  0  0  0  0
   17.2191   -9.8310   10.2419 C   0  0  0  0  0  0  0  0  0  0  0  0
   16.9832   -9.6815    8.8709 C   0  0  0  0  0  0  0  0  0  0  0  0
   15.9772  -10.2208    8.3370 O   0  0  0  0  0  0  0  0  0  0  0  0
   17.8577   -8.9493    8.1315 N   0  0  0  0  0  0  0  0  0  0  0  0
   17.7471   -8.7292    6.8236 N   0  0  0  0  0  0  0  0  0  0  0  0
   18.7578   -7.9628    6.3465 C   0  0  0  0  0  0  0  0  0  0  0  0
   19.8547   -7.5257    7.5730 S   0  0  0  0  0  0  0  0  0  0  0  0
   18.9392   -8.3731    8.6967 C   0  0  0  0  0  0  0  0  0  0  0  0
   19.2030   -8.4965   10.0205 N   0  0  0  0  0  0  0  0  0  0  0  0
   18.8715   -7.5822    4.9069 C   0  0  0  0  0  0  0  0  0  0  0  0
   20.2049   -6.9135    4.6345 C   0  0  0  0  0  0  0  0  0  0  0  0
   18.7143   -8.8030    4.0210 C   0  0  0  0  0  0  0  0  0  0  0  0
 17 18  1  0  0  0
 18 11  1  0  0  0
 11 12  2  0  0  0
 12 13  1  0  0  0
 12  7  1  0  0  0
 13 14  2  0  0  0
 14 15  1  0  0  0
 15 16  2  0  0  0
 16 11  1  0  0  0
  7  8  2  0  0  0
  7  9  1  0  0  0
  9  1  1  0  0  0
  1  2  2  0  0  0
  2  3  1  0  0  0
  3 19  1  0  0  0
  3  4  2  0  0  0
 19 20  1  0  0  0
 20 21  1  0  0  0
 21 22  2  0  0  0
 22 23  1  0  0  0
 23 24  2  0  0  0
 23 25  1  0  0  0
 25 26  1  0  0  0
 26 27  2  0  0  0
 27 28  1  0  0  0
 27 31  1  0  0  0
 28 29  1  0  0  0
 29 30  2  0  0  0
 29 25  1  0  0  0
 30 21  1  0  0  0
 31 32  1  0  0  0
 31 33  1  0  0  0
  4  5  1  0  0  0
  5  6  2  0  0  0
  6  1  1  0  0  0
  9 10  1  0  0  0
M  END
>  <minimizedAffinity>
-7.97473

>  <minimizedRMSD>
1.86768

$$$$
ChemDiv-D439-2860 MCULE-5189058855 MolPort-010-713-975 PubChem-50748750 ZINC000021796830 ZINC21796830


 32 35  0  0  0  0  0  0  0  0999 V2000
   16.6251   -9.7367   14.2452 C   0  0  0  0  0  0  0  0  0  0  0  0
   17.9205  -10.2736   14.3094 C   0  0  0  0  0  0  0  0  0  0  0  0
   18.6295  -10.2566   15.5129 C   0  0  0  0  0  0  0  0  0  0  0  0
   18.0494   -9.7038   16.6576 C   0  0  0  0  0  0  0  0  0  0  0  0
   16.7595   -9.1652   16.6083 C   0  0  0  0  0  0  0  0  0  0  0  0
   16.0530   -9.1857   15.3960 C   0  0  0  0  0  0  0  0  0  0  0  0
   16.1992   -8.6072   17.8047 N   0  0  0  0  0  0  0  0  0  0  0  0
   15.0362   -7.7705   17.9029 C   0  0  0  0  0  0  0  0  0  0  0  0
   14.3867   -7.4501   16.8703 O   0  0  0  0  0  0  0  0  0  0  0  0
   16.6607   -8.8201   18.6478 H   0  0  0  0  0  0  0  0  0  0  0  0
   14.5976   -7.2819   19.2221 C   0  0  0  0  0  0  0  0  0  0  0  0
   15.4046   -7.4746   20.3532 C   0  0  0  0  0  0  0  0  0  0  0  0
   14.9895   -7.0115   21.6053 C   0  0  0  0  0  0  0  0  0  0  0  0
   13.7643   -6.3521   21.7355 C   0  0  0  0  0  0  0  0  0  0  0  0
   13.3233   -5.8599   23.0664 C   0  0  0  0  0  0  0  0  0  0  0  0
   12.9541   -6.1557   20.6142 C   0  0  0  0  0  0  0  0  0  0  0  0
   13.3691   -6.6188   19.3620 C   0  0  0  0  0  0  0  0  0  0  0  0
   15.8887   -9.7376   13.0579 O   0  0  0  0  0  0  0  0  0  0  0  0
   16.1257  -10.6666   12.0082 C   0  0  0  0  0  0  0  0  0  0  0  0
   18.9360   -8.0064    8.0988 N   0  0  0  0  0  0  0  0  0  0  0  0
   20.0083   -7.7031    8.8658 C   0  0  0  0  0  0  0  0  0  0  0  0
   19.8654   -8.1816   10.1304 N   0  0  0  0  0  0  0  0  0  0  0  0
   18.6605   -8.7799   10.0700 C   0  0  0  0  0  0  0  0  0  0  0  0
   18.0502   -9.4193   11.0974 N   0  0  0  0  0  0  0  0  0  0  0  0
   16.8258   -9.9847   10.8879 C   0  0  0  0  0  0  0  0  0  0  0  0
   16.2022   -9.8904    9.6295 C   0  0  0  0  0  0  0  0  0  0  0  0
   16.8673   -9.2204    8.5956 C   0  0  0  0  0  0  0  0  0  0  0  0
   16.3326   -9.1259    7.4608 O   0  0  0  0  0  0  0  0  0  0  0  0
   18.0922   -8.6840    8.8638 N   0  0  0  0  0  0  0  0  0  0  0  0
   17.4907   -6.8925    6.4456 C   0  0  0  0  0  0  0  0  0  0  0  0
   18.7953   -7.6271    6.6941 C   0  0  0  0  0  0  0  0  0  0  0  0
   18.9424   -8.8279    5.7777 C   0  0  0  0  0  0  0  0  0  0  0  0
 30 31  1  0  0  0
 31 32  1  0  0  0
 31 20  1  0  0  0
 20 21  1  0  0  0
 21 22  2  0  0  0
 22 23  1  0  0  0
 23 24  2  0  0  0
 24 25  1  0  0  0
 25 19  1  0  0  0
 25 26  2  0  0  0
 19 18  1  0  0  0
 18  1  1  0  0  0
  1  2  2  0  0  0
  2  3  1  0  0  0
  3  4  2  0  0  0
  4  5  1  0  0  0
  5  7  1  0  0  0
  5  6  2  0  0  0
  7  8  1  0  0  0
  8  9  2  0  0  0
  8 11  1  0  0  0
 11 12  2  0  0  0
 12 13  1  0  0  0
 13 14  2  0  0  0
 14 15  1  0  0  0
 14 16  1  0  0  0
 16 17  2  0  0  0
 17 11  1  0  0  0
  6  1  1  0  0  0
 26 27  1  0  0  0
 27 28  2  0  0  0
 27 29  1  0  0  0
 29 20  1  0  0  0
 29 23  1  0  0  0
  7 10  1  0  0  0
M  END
>  <minimizedAffinity>
-7.97437

>  <minimizedRMSD>
1.45493

$$$$
ChemDiv-G357-0261 MCULE-1872901747 MolPort-007-847-114 PubChem-20952963 ZINC000015771484 ZINC15771484


 29 31  0  0  0  0  0  0  0  0999 V2000
   18.2263  -10.1799   12.2608 O   0  0  0  0  0  0  0  0  0  0  0  0
   17.9750  -10.9325   13.4102 C   0  0  0  0  0  0  0  0  0  0  0  0
   18.1831  -12.1779   13.4130 O   0  0  0  0  0  0  0  0  0  0  0  0
   16.4965   -8.9856   16.9305 C   0  0  0  0  0  0  0  0  0  0  0  0
   17.1360  -10.2256   17.0264 C   0  0  0  0  0  0  0  0  0  0  0  0
   17.6192  -10.8636   15.8802 C   0  0  0  0  0  0  0  0  0  0  0  0
   17.4678  -10.2666   14.6209 C   0  0  0  0  0  0  0  0  0  0  0  0
   16.8281   -9.0242   14.5238 C   0  0  0  0  0  0  0  0  0  0  0  0
   16.3452   -8.3879   15.6705 C   0  0  0  0  0  0  0  0  0  0  0  0
   14.7993   -7.6165   18.2789 C   0  0  0  0  0  0  0  0  0  0  0  0
   14.0212   -7.4321   17.3047 O   0  0  0  0  0  0  0  0  0  0  0  0
   16.0132   -8.3640   18.1295 N   0  0  0  0  0  0  0  0  0  0  0  0
   16.5734   -8.4608   18.9332 H   0  0  0  0  0  0  0  0  0  0  0  0
   13.0993   -6.3793   19.5693 C   0  0  0  0  0  0  0  0  0  0  0  0
   14.4662   -7.0352   19.6089 C   0  0  0  0  0  0  0  0  0  0  0  0
   17.2282   -9.3657   11.6628 C   0  0  0  0  0  0  0  0  0  0  0  0
   17.5004   -9.2337   10.2071 C   0  0  0  0  0  0  0  0  0  0  0  0
   16.7318   -9.9629    9.2843 C   0  0  0  0  0  0  0  0  0  0  0  0
   16.9885   -9.8004    7.9186 C   0  0  0  0  0  0  0  0  0  0  0  0
   16.3192  -10.4423    7.0659 O   0  0  0  0  0  0  0  0  0  0  0  0
   17.9673   -8.9394    7.5335 N   0  0  0  0  0  0  0  0  0  0  0  0
   18.3097   -8.6939    6.2712 N   0  0  0  0  0  0  0  0  0  0  0  0
   19.3145   -7.7858    6.1827 C   0  0  0  0  0  0  0  0  0  0  0  0
   19.8234   -7.2504    7.7106 S   0  0  0  0  0  0  0  0  0  0  0  0
   18.6843   -8.2447    8.4419 C   0  0  0  0  0  0  0  0  0  0  0  0
   18.4654   -8.3743    9.7731 N   0  0  0  0  0  0  0  0  0  0  0  0
   19.9093   -7.3244    4.8947 C   0  0  0  0  0  0  0  0  0  0  0  0
   19.6927   -8.3608    3.8097 C   0  0  0  0  0  0  0  0  0  0  0  0
   21.3921   -7.0598    5.0648 C   0  0  0  0  0  0  0  0  0  0  0  0
 14 15  1  0  0  0
 15 10  1  0  0  0
 10 11  2  0  0  0
 10 12  1  0  0  0
 12  4  1  0  0  0
  4  5  2  0  0  0
  5  6  1  0  0  0
  6  7  2  0  0  0
  7  8  1  0  0  0
  7  2  1  0  0  0
  8  9  2  0  0  0
  9  4  1  0  0  0
  2  3  2  0  0  0
  2  1  1  0  0  0
  1 16  1  0  0  0
 16 17  1  0  0  0
 17 18  2  0  0  0
 18 19  1  0  0  0
 19 20  2  0  0  0
 19 21  1  0  0  0
 21 22  1  0  0  0
 22 23  2  0  0  0
 23 24  1  0  0  0
 23 27  1  0  0  0
 24 25  1  0  0  0
 25 26  2  0  0  0
 25 21  1  0  0  0
 26 17  1  0  0  0
 27 28  1  0  0  0
 27 29  1  0  0  0
 12 13  1  0  0  0
M  END
>  <minimizedAffinity>
-7.95833

>  <minimizedRMSD>
1.31790

$$$$
ChemDiv-G756-0130 MCULE-8970825996 MolPort-010-686-755 PubChem-50802119 ZINC000033268507 ZINC33268507


 28 30  0  0  0  0  0  0  0  0999 V2000
   16.6744   -9.4172   17.1080 C   0  0  0  0  0  0  0  0  0  0  0  0
   16.7416   -9.0812   15.7473 C   0  0  0  0  0  0  0  0  0  0  0  0
   17.3897   -9.9205   14.8356 C   0  0  0  0  0  0  0  0  0  0  0  0
   17.9776  -11.1104   15.2927 C   0  0  0  0  0  0  0  0  0  0  0  0
   17.9146  -11.4510   16.6459 C   0  0  0  0  0  0  0  0  0  0  0  0
   17.2648  -10.6059   17.5493 C   0  0  0  0  0  0  0  0  0  0  0  0
   14.8686   -7.7467   17.8360 C   0  0  0  0  0  0  0  0  0  0  0  0
   14.3160   -7.6998   16.7052 O   0  0  0  0  0  0  0  0  0  0  0  0
   16.0178   -8.5762   18.0659 N   0  0  0  0  0  0  0  0  0  0  0  0
   16.3940   -8.5665   18.9756 H   0  0  0  0  0  0  0  0  0  0  0  0
   14.3109   -6.9188   18.9495 C   0  0  0  0  0  0  0  0  0  0  0  0
   12.5569   -5.1690   19.2487 C   0  0  0  0  0  0  0  0  0  0  0  0
   12.8814   -6.5136   18.6254 C   0  0  0  0  0  0  0  0  0  0  0  0
   14.3606   -7.6819   20.2678 C   0  0  0  0  0  0  0  0  0  0  0  0
   15.2952   -6.9941   21.2455 C   0  0  0  0  0  0  0  0  0  0  0  0
   17.4345   -9.5502   13.4892 O   0  0  0  0  0  0  0  0  0  0  0  0
   18.3807  -10.0896   12.5757 C   0  0  0  0  0  0  0  0  0  0  0  0
   18.0181   -9.6924   11.1897 C   0  0  0  0  0  0  0  0  0  0  0  0
   16.8085  -10.1070   10.6407 C   0  0  0  0  0  0  0  0  0  0  0  0
   16.4815   -9.6980    9.3488 C   0  0  0  0  0  0  0  0  0  0  0  0
   15.3872  -10.0764    8.8475 O   0  0  0  0  0  0  0  0  0  0  0  0
   17.3397   -8.8972    8.6434 N   0  0  0  0  0  0  0  0  0  0  0  0
   17.0181   -8.4969    7.3769 C   0  0  0  0  0  0  0  0  0  0  0  0
   17.8800   -7.6780    6.6452 C   0  0  0  0  0  0  0  0  0  0  0  0
   19.0817   -7.2666    7.2184 C   0  0  0  0  0  0  0  0  0  0  0  0
   19.4093   -7.6749    8.5100 C   0  0  0  0  0  0  0  0  0  0  0  0
   18.5263   -8.4950    9.2163 C   0  0  0  0  0  0  0  0  0  0  0  0
   18.8477   -8.8916   10.4748 N   0  0  0  0  0  0  0  0  0  0  0  0
 12 13  1  0  0  0
 13 11  1  0  0  0
 11 14  1  0  0  0
 11  7  1  0  0  0
 14 15  1  0  0  0
  7  8  2  0  0  0
  7  9  1  0  0  0
  9  1  1  0  0  0
  1  2  2  0  0  0
  2  3  1  0  0  0
  3 16  1  0  0  0
  3  4  2  0  0  0
 16 17  1  0  0  0
 17 18  1  0  0  0
 18 19  2  0  0  0
 19 20  1  0  0  0
 20 21  2  0  0  0
 20 22  1  0  0  0
 22 23  1  0  0  0
 23 24  2  0  0  0
 24 25  1  0  0  0
 25 26  2  0  0  0
 26 27  1  0  0  0
 27 28  2  0  0  0
 27 22  1  0  0  0
 28 18  1  0  0  0
  4  5  1  0  0  0
  5  6  2  0  0  0
  6  1  1  0  0  0
  9 10  1  0  0  0
M  END
>  <minimizedAffinity>
-7.95339

>  <minimizedRMSD>
1.03987

$$$$
ChemDiv-C679-6244 MCULE-4066174163 MolPort-010-755-238 PubChem-50744288 ZINC000041085740 ZINC41085740


 32 35  0  0  0  0  0  0  0  0999 V2000
   16.6871   -9.4210   17.0886 C   0  0  0  0  0  0  0  0  0  0  0  0
   16.7667   -9.1062   15.7234 C   0  0  0  0  0  0  0  0  0  0  0  0
   17.4310   -9.9548   14.8323 C   0  0  0  0  0  0  0  0  0  0  0  0
   18.0226  -11.1329   15.3145 C   0  0  0  0  0  0  0  0  0  0  0  0
   17.9472  -11.4526   16.6722 C   0  0  0  0  0  0  0  0  0  0  0  0
   17.2812  -10.5983   17.5550 C   0  0  0  0  0  0  0  0  0  0  0  0
   14.7846   -7.8577   17.8146 C   0  0  0  0  0  0  0  0  0  0  0  0
   14.1769   -7.9382   16.7123 O   0  0  0  0  0  0  0  0  0  0  0  0
   16.0129   -8.5708   18.0260 N   0  0  0  0  0  0  0  0  0  0  0  0
   16.4371   -8.4648   18.9081 H   0  0  0  0  0  0  0  0  0  0  0  0
   14.4344   -6.0304   21.1128 C   0  0  0  0  0  0  0  0  0  0  0  0
   13.1764   -5.4405   20.9578 C   0  0  0  0  0  0  0  0  0  0  0  0
   12.4443   -5.6377   19.7841 C   0  0  0  0  0  0  0  0  0  0  0  0
   12.9685   -6.4271   18.7572 C   0  0  0  0  0  0  0  0  0  0  0  0
   14.2293   -7.0247   18.8958 C   0  0  0  0  0  0  0  0  0  0  0  0
   14.9569   -6.8209   20.0764 C   0  0  0  0  0  0  0  0  0  0  0  0
   15.1442   -5.8106   22.2989 O   0  0  0  0  0  0  0  0  0  0  0  0
   15.4144   -7.3868   24.1096 C   0  0  0  0  0  0  0  0  0  0  0  0
   16.0323   -6.7665   22.8698 C   0  0  0  0  0  0  0  0  0  0  0  0
   17.4879   -9.6053   13.4808 O   0  0  0  0  0  0  0  0  0  0  0  0
   18.3320  -10.2710   12.5507 C   0  0  0  0  0  0  0  0  0  0  0  0
   18.0592   -9.7653   11.1795 C   0  0  0  0  0  0  0  0  0  0  0  0
   16.8220  -10.0476   10.5646 C   0  0  0  0  0  0  0  0  0  0  0  0
   16.5792   -9.5371    9.2835 C   0  0  0  0  0  0  0  0  0  0  0  0
   15.4917   -9.7641    8.6913 O   0  0  0  0  0  0  0  0  0  0  0  0
   17.5484   -8.7904    8.7024 N   0  0  0  0  0  0  0  0  0  0  0  0
   17.5433   -8.2211    7.5409 O   0  0  0  0  0  0  0  0  0  0  0  0
   18.6883   -7.5888    7.3749 C   0  0  0  0  0  0  0  0  0  0  0  0
   19.0404   -6.8185    6.1534 C   0  0  0  0  0  0  0  0  0  0  0  0
   19.5140   -7.7415    8.4941 C   0  0  0  0  0  0  0  0  0  0  0  0
   18.7125   -8.5253    9.3020 C   0  0  0  0  0  0  0  0  0  0  0  0
   18.9924   -8.9972   10.5415 N   0  0  0  0  0  0  0  0  0  0  0  0
 18 19  1  0  0  0
 19 17  1  0  0  0
 17 11  1  0  0  0
 11 12  2  0  0  0
 12 13  1  0  0  0
 13 14  2  0  0  0
 14 15  1  0  0  0
 15 16  2  0  0  0
 15  7  1  0  0  0
 16 11  1  0  0  0
  7  8  2  0  0  0
  7  9  1  0  0  0
  9  1  1  0  0  0
  1  2  2  0  0  0
  2  3  1  0  0  0
  3 20  1  0  0  0
  3  4  2  0  0  0
 20 21  1  0  0  0
 21 22  1  0  0  0
 22 23  2  0  0  0
 23 24  1  0  0  0
 24 25  2  0  0  0
 24 26  1  0  0  0
 26 27  1  0  0  0
 27 28  1  0  0  0
 28 29  1  0  0  0
 28 30  2  0  0  0
 30 31  1  0  0  0
 31 32  2  0  0  0
 31 26  1  0  0  0
 32 22  1  0  0  0
  4  5  1  0  0  0
  5  6  2  0  0  0
  6  1  1  0  0  0
  9 10  1  0  0  0
M  END
>  <minimizedAffinity>
-7.95107

>  <minimizedRMSD>
1.01143

$$$$
ChemDiv-C679-4397 MCULE-6920979963 MolPort-007-655-873 PubChem-46258357 ZINC000020859237


 33 37  0  0  0  0  0  0  0  0999 V2000
   16.7838   -9.3529   15.0721 C   0  0  0  0  0  0  0  0  0  0  0  0
   17.4257  -10.3732   15.7915 C   0  0  0  0  0  0  0  0  0  0  0  0
   17.2950  -10.4430   17.1804 C   0  0  0  0  0  0  0  0  0  0  0  0
   16.5234   -9.4953   17.8580 C   0  0  0  0  0  0  0  0  0  0  0  0
   15.8781   -8.4732   17.1541 C   0  0  0  0  0  0  0  0  0  0  0  0
   16.0137   -8.4092   15.7589 C   0  0  0  0  0  0  0  0  0  0  0  0
   15.0954   -7.5200   17.8857 N   0  0  0  0  0  0  0  0  0  0  0  0
   13.6872   -7.5891   18.1586 C   0  0  0  0  0  0  0  0  0  0  0  0
   12.9996   -8.5612   17.7431 O   0  0  0  0  0  0  0  0  0  0  0  0
   15.5741   -6.7353   18.2382 H   0  0  0  0  0  0  0  0  0  0  0  0
   13.0399   -6.5145   18.9312 C   0  0  0  0  0  0  0  0  0  0  0  0
   12.0472   -5.7018   18.3296 C   0  0  0  0  0  0  0  0  0  0  0  0
   11.4208   -4.6724   19.0548 C   0  0  0  0  0  0  0  0  0  0  0  0
   11.8142   -4.4878   20.3768 C   0  0  0  0  0  0  0  0  0  0  0  0
   12.7637   -5.2610   20.9610 C   0  0  0  0  0  0  0  0  0  0  0  0
   12.9487   -4.8541   22.2672 O   0  0  0  0  0  0  0  0  0  0  0  0
   12.0603   -3.7565   22.5205 C   0  0  0  0  0  0  0  0  0  0  0  0
   11.3554   -3.5566   21.2870 O   0  0  0  0  0  0  0  0  0  0  0  0
   13.4054   -6.2887   20.2754 C   0  0  0  0  0  0  0  0  0  0  0  0
   16.8937   -9.2542   13.6828 O   0  0  0  0  0  0  0  0  0  0  0  0
   17.7419  -10.1003   12.9177 C   0  0  0  0  0  0  0  0  0  0  0  0
   17.3750   -9.0715    8.8451 N   0  0  0  0  0  0  0  0  0  0  0  0
   17.3938   -8.6605    7.5795 N   0  0  0  0  0  0  0  0  0  0  0  0
   18.5075   -7.9427    7.2947 C   0  0  0  0  0  0  0  0  0  0  0  0
   19.5220   -7.7746    8.6454 S   0  0  0  0  0  0  0  0  0  0  0  0
   18.4489   -8.6829    9.5646 C   0  0  0  0  0  0  0  0  0  0  0  0
   18.5866   -9.0095   10.8728 N   0  0  0  0  0  0  0  0  0  0  0  0
   17.6195   -9.7568   11.4765 C   0  0  0  0  0  0  0  0  0  0  0  0
   16.4865  -10.1680   10.7550 C   0  0  0  0  0  0  0  0  0  0  0  0
   16.3810   -9.8089    9.4067 C   0  0  0  0  0  0  0  0  0  0  0  0
   15.3789  -10.1644    8.7314 O   0  0  0  0  0  0  0  0  0  0  0  0
   18.7647   -7.3260    5.9656 C   0  0  0  0  0  0  0  0  0  0  0  0
   20.2413   -7.4123    5.6351 C   0  0  0  0  0  0  0  0  0  0  0  0
 22 23  1  0  0  0
 23 24  2  0  0  0
 24 25  1  0  0  0
 25 26  1  0  0  0
 26 27  2  0  0  0
 27 28  1  0  0  0
 28 21  1  0  0  0
 21 20  1  0  0  0
 20  1  1  0  0  0
  1  2  2  0  0  0
  2  3  1  0  0  0
  3  4  2  0  0  0
  4  5  1  0  0  0
  5  6  2  0  0  0
  5  7  1  0  0  0
  7  8  1  0  0  0
  8  9  2  0  0  0
  8 11  1  0  0  0
 11 12  2  0  0  0
 12 13  1  0  0  0
 13 14  2  0  0  0
 14 15  1  0  0  0
 15 16  1  0  0  0
 16 17  1  0  0  0
 17 18  1  0  0  0
 15 19  2  0  0  0
 28 29  2  0  0  0
 29 30  1  0  0  0
 30 31  2  0  0  0
 24 32  1  0  0  0
 32 33  1  0  0  0
 26 22  1  0  0  0
  6  1  1  0  0  0
 19 11  1  0  0  0
 30 22  1  0  0  0
 18 14  1  0  0  0
  7 10  1  0  0  0
M  END
>  <minimizedAffinity>
-7.94767

>  <minimizedRMSD>
1.57624

$$$$
ChemDiv-G756-0342 MCULE-7133782636 MolPort-010-744-620 PubChem-50802162 ZINC000033268535 ZINC33268535


 28 30  0  0  0  0  0  0  0  0999 V2000
   16.8144   -9.7442   16.8100 C   0  0  0  0  0  0  0  0  0  0  0  0
   17.2887  -10.9889   17.2241 C   0  0  0  0  0  0  0  0  0  0  0  0
   17.8350  -11.8785   16.2981 C   0  0  0  0  0  0  0  0  0  0  0  0
   17.9143  -11.5395   14.9439 C   0  0  0  0  0  0  0  0  0  0  0  0
   18.5284  -12.5441   14.0305 C   0  0  0  0  0  0  0  0  0  0  0  0
   17.4313  -10.2773   14.5076 C   0  0  0  0  0  0  0  0  0  0  0  0
   16.8906   -9.3994   15.4544 C   0  0  0  0  0  0  0  0  0  0  0  0
   15.1969   -7.9163   17.5941 C   0  0  0  0  0  0  0  0  0  0  0  0
   14.5910   -7.8381   16.4930 O   0  0  0  0  0  0  0  0  0  0  0  0
   16.2660   -8.8523   17.7901 N   0  0  0  0  0  0  0  0  0  0  0  0
   16.6641   -8.8861   18.6899 H   0  0  0  0  0  0  0  0  0  0  0  0
   14.7786   -7.0309   18.7191 C   0  0  0  0  0  0  0  0  0  0  0  0
   13.1052   -7.7879   20.3772 C   0  0  0  0  0  0  0  0  0  0  0  0
   14.5696   -7.8299   19.9957 C   0  0  0  0  0  0  0  0  0  0  0  0
   15.3933   -7.2421   21.1265 C   0  0  0  0  0  0  0  0  0  0  0  0
   17.4590   -9.8278   13.1778 O   0  0  0  0  0  0  0  0  0  0  0  0
   18.6306   -9.5434   12.4265 C   0  0  0  0  0  0  0  0  0  0  0  0
   18.2710   -9.3667   10.9950 C   0  0  0  0  0  0  0  0  0  0  0  0
   17.0891   -9.9109   10.5010 C   0  0  0  0  0  0  0  0  0  0  0  0
   16.7589   -9.6984    9.1634 C   0  0  0  0  0  0  0  0  0  0  0  0
   15.6901  -10.1947    8.7122 O   0  0  0  0  0  0  0  0  0  0  0  0
   17.5855   -8.9582    8.3607 N   0  0  0  0  0  0  0  0  0  0  0  0
   17.2593   -8.7477    7.0504 C   0  0  0  0  0  0  0  0  0  0  0  0
   18.0889   -7.9922    6.2194 C   0  0  0  0  0  0  0  0  0  0  0  0
   19.2617   -7.4475    6.7383 C   0  0  0  0  0  0  0  0  0  0  0  0
   19.5944   -7.6629    8.0744 C   0  0  0  0  0  0  0  0  0  0  0  0
   18.7451   -8.4250    8.8799 C   0  0  0  0  0  0  0  0  0  0  0  0
   19.0699   -8.6308   10.1822 N   0  0  0  0  0  0  0  0  0  0  0  0
 13 14  1  0  0  0
 14 15  1  0  0  0
 14 12  1  0  0  0
 12  8  1  0  0  0
  8  9  2  0  0  0
  8 10  1  0  0  0
 10  1  1  0  0  0
  1  2  2  0  0  0
  2  3  1  0  0  0
  3  4  2  0  0  0
  4  5  1  0  0  0
  4  6  1  0  0  0
  6 16  1  0  0  0
  6  7  2  0  0  0
 16 17  1  0  0  0
 17 18  1  0  0  0
 18 19  2  0  0  0
 19 20  1  0  0  0
 20 21  2  0  0  0
 20 22  1  0  0  0
 22 23  1  0  0  0
 23 24  2  0  0  0
 24 25  1  0  0  0
 25 26  2  0  0  0
 26 27  1  0  0  0
 27 28  2  0  0  0
 27 22  1  0  0  0
 28 18  1  0  0  0
  7  1  1  0  0  0
 10 11  1  0  0  0
M  END
>  <minimizedAffinity>
-7.94278

>  <minimizedRMSD>
1.25828

$$$$
ChemDiv-G355-3269 MCULE-9452181118 MolPort-010-772-282 PubChem-50793995 ZINC000045995795 ZINC45995795


 31 34  0  0  0  0  0  0  0  0999 V2000
   16.9997   -9.7447   14.9140 C   0  0  0  0  0  0  0  0  0  0  0  0
   16.3642   -8.7809   15.7055 C   0  0  0  0  0  0  0  0  0  0  0  0
   16.2417   -8.9394   17.0920 C   0  0  0  0  0  0  0  0  0  0  0  0
   16.7648  -10.0831   17.6956 C   0  0  0  0  0  0  0  0  0  0  0  0
   17.4024  -11.0567   16.9264 C   0  0  0  0  0  0  0  0  0  0  0  0
   17.5276  -10.9039   15.5423 C   0  0  0  0  0  0  0  0  0  0  0  0
   18.2229  -11.9947   14.8031 C   0  0  0  0  0  0  0  0  0  0  0  0
   15.5930   -7.9606   17.9154 N   0  0  0  0  0  0  0  0  0  0  0  0
   14.1863   -7.8436   18.1765 C   0  0  0  0  0  0  0  0  0  0  0  0
   13.3795   -8.6580   17.6494 O   0  0  0  0  0  0  0  0  0  0  0  0
   16.1762   -7.2963   18.3489 H   0  0  0  0  0  0  0  0  0  0  0  0
   13.6558   -6.7695   19.0595 C   0  0  0  0  0  0  0  0  0  0  0  0
   14.0194   -6.6116   20.4237 C   0  0  0  0  0  0  0  0  0  0  0  0
   14.9750   -7.5160   21.1251 C   0  0  0  0  0  0  0  0  0  0  0  0
   13.4682   -5.5681   21.1754 C   0  0  0  0  0  0  0  0  0  0  0  0
   12.5620   -4.6773   20.6007 C   0  0  0  0  0  0  0  0  0  0  0  0
   12.1971   -4.8236   19.2639 C   0  0  0  0  0  0  0  0  0  0  0  0
   12.7399   -5.8601   18.5031 C   0  0  0  0  0  0  0  0  0  0  0  0
   17.0651   -9.4825   13.5361 O   0  0  0  0  0  0  0  0  0  0  0  0
   18.2122   -9.6553   12.7164 C   0  0  0  0  0  0  0  0  0  0  0  0
   18.3021   -8.2106    5.5577 C   0  0  0  0  0  0  0  0  0  0  0  0
   18.0738   -8.5966    6.9748 C   0  0  0  0  0  0  0  0  0  0  0  0
   18.9853   -8.4005    8.0179 C   0  0  0  0  0  0  0  0  0  0  0  0
   18.2790   -8.9286    9.0816 C   0  0  0  0  0  0  0  0  0  0  0  0
   18.6691   -9.0124   10.3771 N   0  0  0  0  0  0  0  0  0  0  0  0
   17.8183   -9.5777   11.2853 C   0  0  0  0  0  0  0  0  0  0  0  0
   16.5520  -10.0502   10.8831 C   0  0  0  0  0  0  0  0  0  0  0  0
   16.1943   -9.9408    9.5338 C   0  0  0  0  0  0  0  0  0  0  0  0
   15.0765  -10.3510    9.1250 O   0  0  0  0  0  0  0  0  0  0  0  0
   17.0861   -9.3789    8.6832 N   0  0  0  0  0  0  0  0  0  0  0  0
   16.9714   -9.1741    7.4111 O   0  0  0  0  0  0  0  0  0  0  0  0
 21 22  1  0  0  0
 22 23  2  0  0  0
 23 24  1  0  0  0
 24 25  2  0  0  0
 25 26  1  0  0  0
 26 20  1  0  0  0
 26 27  2  0  0  0
 20 19  1  0  0  0
 19  1  1  0  0  0
  1  2  2  0  0  0
  2  3  1  0  0  0
  3  8  1  0  0  0
  3  4  2  0  0  0
  8  9  1  0  0  0
  9 10  2  0  0  0
  9 12  1  0  0  0
 12 13  2  0  0  0
 13 14  1  0  0  0
 13 15  1  0  0  0
 15 16  2  0  0  0
 16 17  1  0  0  0
 17 18  2  0  0  0
 18 12  1  0  0  0
  4  5  1  0  0  0
  5  6  2  0  0  0
  6  7  1  0  0  0
  6  1  1  0  0  0
 27 28  1  0  0  0
 28 29  2  0  0  0
 28 30  1  0  0  0
 30 31  1  0  0  0
 30 24  1  0  0  0
 31 22  1  0  0  0
  8 11  1  0  0  0
M  END
>  <minimizedAffinity>
-7.93520

>  <minimizedRMSD>
1.24438

$$$$
ChemDiv-G357-0036 MCULE-6620430065 MolPort-007-847-020 PubChem-20952939 ZINC000015771360


 34 37  0  0  0  0  0  0  0  0999 V2000
   17.8969  -10.6706   14.5276 C   0  0  0  0  0  0  0  0  0  0  0  0
   17.7986  -11.2818   15.7853 C   0  0  0  0  0  0  0  0  0  0  0  0
   17.2235  -10.5974   16.8598 C   0  0  0  0  0  0  0  0  0  0  0  0
   16.7394   -9.2961   16.6928 C   0  0  0  0  0  0  0  0  0  0  0  0
   16.8382   -8.6838   15.4347 C   0  0  0  0  0  0  0  0  0  0  0  0
   17.4129   -9.3669   14.3595 C   0  0  0  0  0  0  0  0  0  0  0  0
   16.1597   -8.6260   17.8200 N   0  0  0  0  0  0  0  0  0  0  0  0
   14.9618   -7.8393   17.8276 C   0  0  0  0  0  0  0  0  0  0  0  0
   14.2748   -7.6830   16.7836 O   0  0  0  0  0  0  0  0  0  0  0  0
   16.6339   -8.7156   18.6781 H   0  0  0  0  0  0  0  0  0  0  0  0
   14.5380   -7.1692   19.0890 C   0  0  0  0  0  0  0  0  0  0  0  0
   15.6704   -6.6344   19.7669 O   0  0  0  0  0  0  0  0  0  0  0  0
   15.8924   -6.7932   21.1412 C   0  0  0  0  0  0  0  0  0  0  0  0
   14.8552   -7.1781   22.0076 C   0  0  0  0  0  0  0  0  0  0  0  0
   15.0950   -7.3302   23.3755 C   0  0  0  0  0  0  0  0  0  0  0  0
   16.3723   -7.0975   23.8899 C   0  0  0  0  0  0  0  0  0  0  0  0
   17.4092   -6.7122   23.0365 C   0  0  0  0  0  0  0  0  0  0  0  0
   17.1734   -6.5586   21.6666 C   0  0  0  0  0  0  0  0  0  0  0  0
   18.4983   -6.0750   20.6231 Cl  0  0  0  0  0  0  0  0  0  0  0  0
   18.5014  -11.3857   13.3923 C   0  0  0  0  0  0  0  0  0  0  0  0
   18.9687  -12.5472   13.5530 O   0  0  0  0  0  0  0  0  0  0  0  0
   18.5550  -10.7730   12.1384 O   0  0  0  0  0  0  0  0  0  0  0  0
   17.6243   -9.7734   11.7500 C   0  0  0  0  0  0  0  0  0  0  0  0
   18.1182   -8.8139    7.6740 N   0  0  0  0  0  0  0  0  0  0  0  0
   18.3916   -8.4118    6.4351 N   0  0  0  0  0  0  0  0  0  0  0  0
   19.4458   -7.5619    6.3988 C   0  0  0  0  0  0  0  0  0  0  0  0
   20.0894   -7.2730    7.9417 S   0  0  0  0  0  0  0  0  0  0  0  0
   18.9380   -8.2959    8.6128 C   0  0  0  0  0  0  0  0  0  0  0  0
   18.7987   -8.5986    9.9265 N   0  0  0  0  0  0  0  0  0  0  0  0
   17.8091   -9.4541   10.3098 C   0  0  0  0  0  0  0  0  0  0  0  0
   16.9354  -10.0019    9.3560 C   0  0  0  0  0  0  0  0  0  0  0  0
   17.1123   -9.6642    8.0096 C   0  0  0  0  0  0  0  0  0  0  0  0
   16.3481  -10.1416    7.1295 O   0  0  0  0  0  0  0  0  0  0  0  0
   19.9656   -6.9595    5.1438 C   0  0  0  0  0  0  0  0  0  0  0  0
 24 25  1  0  0  0
 25 26  2  0  0  0
 26 27  1  0  0  0
 27 28  1  0  0  0
 28 29  2  0  0  0
 29 30  1  0  0  0
 30 23  1  0  0  0
 23 22  1  0  0  0
 22 20  1  0  0  0
 20 21  2  0  0  0
 20  1  1  0  0  0
  1  2  2  0  0  0
  2  3  1  0  0  0
  3  4  2  0  0  0
  4  5  1  0  0  0
  5  6  2  0  0  0
  4  7  1  0  0  0
  7  8  1  0  0  0
  8 11  1  0  0  0
 11 12  1  0  0  0
 12 13  1  0  0  0
 13 14  2  0  0  0
 14 15  1  0  0  0
 15 16  2  0  0  0
 16 17  1  0  0  0
 17 18  2  0  0  0
 18 19  1  0  0  0
  8  9  2  0  0  0
 30 31  2  0  0  0
 31 32  1  0  0  0
 32 33  2  0  0  0
 26 34  1  0  0  0
 28 24  1  0  0  0
  6  1  1  0  0  0
 18 13  1  0  0  0
 32 24  1  0  0  0
  7 10  1  0  0  0
M  END
>  <minimizedAffinity>
-7.92885

>  <minimizedRMSD>
1.52916

$$$$
ChemDiv-C679-4714 MCULE-2429326023 MolPort-007-655-974 PubChem-20874306 ZINC000013368270


 35 38  0  0  0  0  0  0  0  0999 V2000
   17.2461   -9.9209   14.9842 C   0  0  0  0  0  0  0  0  0  0  0  0
   17.7247  -11.1229   15.5289 C   0  0  0  0  0  0  0  0  0  0  0  0
   17.6700  -11.3407   16.9076 C   0  0  0  0  0  0  0  0  0  0  0  0
   17.1374  -10.3606   17.7491 C   0  0  0  0  0  0  0  0  0  0  0  0
   16.6567   -9.1583   17.2202 C   0  0  0  0  0  0  0  0  0  0  0  0
   16.7151   -8.9459   15.8343 C   0  0  0  0  0  0  0  0  0  0  0  0
   16.1174   -8.1771   18.1164 N   0  0  0  0  0  0  0  0  0  0  0  0
   14.7665   -7.6993   18.1518 C   0  0  0  0  0  0  0  0  0  0  0  0
   13.8927   -8.1468   17.3629 O   0  0  0  0  0  0  0  0  0  0  0  0
   16.7392   -7.7920   18.7753 H   0  0  0  0  0  0  0  0  0  0  0  0
   14.3806   -6.6844   19.1666 C   0  0  0  0  0  0  0  0  0  0  0  0
   13.1872   -7.0953   19.8204 O   0  0  0  0  0  0  0  0  0  0  0  0
   12.5105   -6.2847   20.7355 C   0  0  0  0  0  0  0  0  0  0  0  0
   11.4516   -5.4901   20.2827 C   0  0  0  0  0  0  0  0  0  0  0  0
   10.7546   -4.6681   21.1736 C   0  0  0  0  0  0  0  0  0  0  0  0
   11.1142   -4.6367   22.5240 C   0  0  0  0  0  0  0  0  0  0  0  0
   12.1706   -5.4276   22.9844 C   0  0  0  0  0  0  0  0  0  0  0  0
   12.8677   -6.2495   22.0939 C   0  0  0  0  0  0  0  0  0  0  0  0
   10.3728   -3.7630   23.4702 C   0  0  0  0  0  0  0  0  0  0  0  0
   17.2854   -9.6713   13.6101 O   0  0  0  0  0  0  0  0  0  0  0  0
   17.9820  -10.5090   12.6969 C   0  0  0  0  0  0  0  0  0  0  0  0
   17.5272   -8.9483    8.8065 N   0  0  0  0  0  0  0  0  0  0  0  0
   17.5242   -8.3808    7.6028 N   0  0  0  0  0  0  0  0  0  0  0  0
   18.6727   -7.7050    7.3569 C   0  0  0  0  0  0  0  0  0  0  0  0
   19.7491   -7.7754    8.6676 S   0  0  0  0  0  0  0  0  0  0  0  0
   18.6528   -8.7237    9.5166 C   0  0  0  0  0  0  0  0  0  0  0  0
   18.8190   -9.2225   10.7659 N   0  0  0  0  0  0  0  0  0  0  0  0
   17.8275   -9.9783   11.3169 C   0  0  0  0  0  0  0  0  0  0  0  0
   16.6414  -10.2217   10.6047 C   0  0  0  0  0  0  0  0  0  0  0  0
   16.5078   -9.6872    9.3184 C   0  0  0  0  0  0  0  0  0  0  0  0
   15.4578   -9.8895    8.6526 O   0  0  0  0  0  0  0  0  0  0  0  0
   18.9182   -6.9391    6.1060 C   0  0  0  0  0  0  0  0  0  0  0  0
   20.2909   -7.2812    5.5541 C   0  0  0  0  0  0  0  0  0  0  0  0
   20.1883   -7.6963    4.0976 C   0  0  0  0  0  0  0  0  0  0  0  0
   18.7957   -8.2149    3.7918 C   0  0  0  0  0  0  0  0  0  0  0  0
 22 23  1  0  0  0
 23 24  2  0  0  0
 24 25  1  0  0  0
 25 26  1  0  0  0
 26 27  2  0  0  0
 27 28  1  0  0  0
 28 21  1  0  0  0
 21 20  1  0  0  0
 20  1  1  0  0  0
  1  2  2  0  0  0
  2  3  1  0  0  0
  3  4  2  0  0  0
  4  5  1  0  0  0
  5  6  2  0  0  0
  5  7  1  0  0  0
  7  8  1  0  0  0
  8 11  1  0  0  0
 11 12  1  0  0  0
 12 13  1  0  0  0
 13 14  2  0  0  0
 14 15  1  0  0  0
 15 16  2  0  0  0
 16 17  1  0  0  0
 17 18  2  0  0  0
 16 19  1  0  0  0
  8  9  2  0  0  0
 28 29  2  0  0  0
 29 30  1  0  0  0
 30 31  2  0  0  0
 24 32  1  0  0  0
 32 33  1  0  0  0
 33 34  1  0  0  0
 34 35  1  0  0  0
 26 22  1  0  0  0
  6  1  1  0  0  0
 18 13  1  0  0  0
 30 22  1  0  0  0
  7 10  1  0  0  0
M  END
>  <minimizedAffinity>
-7.92317

>  <minimizedRMSD>
1.53903

$$$$
ChemDiv-D439-2856 MCULE-3671716370 MolPort-010-713-974 PubChem-50748749 ZINC000021796825 ZINC21796825


 32 35  0  0  0  0  0  0  0  0999 V2000
   16.6260   -9.7352   14.2495 C   0  0  0  0  0  0  0  0  0  0  0  0
   17.9224  -10.2696   14.3152 C   0  0  0  0  0  0  0  0  0  0  0  0
   18.6303  -10.2507   15.5192 C   0  0  0  0  0  0  0  0  0  0  0  0
   18.0480   -9.6986   16.6631 C   0  0  0  0  0  0  0  0  0  0  0  0
   16.7571   -9.1624   16.6125 C   0  0  0  0  0  0  0  0  0  0  0  0
   16.0518   -9.1848   15.3996 C   0  0  0  0  0  0  0  0  0  0  0  0
   16.1947   -8.6050   17.8081 N   0  0  0  0  0  0  0  0  0  0  0  0
   15.0318   -7.7679   17.9045 C   0  0  0  0  0  0  0  0  0  0  0  0
   14.3846   -7.4464   16.8708 O   0  0  0  0  0  0  0  0  0  0  0  0
   16.6544   -8.8188   18.6520 H   0  0  0  0  0  0  0  0  0  0  0  0
   14.5908   -7.2801   19.2233 C   0  0  0  0  0  0  0  0  0  0  0  0
   15.3947   -7.4751   20.3560 C   0  0  0  0  0  0  0  0  0  0  0  0
   14.9774   -7.0129   21.6076 C   0  0  0  0  0  0  0  0  0  0  0  0
   13.7528   -6.3521   21.7354 C   0  0  0  0  0  0  0  0  0  0  0  0
   13.2302   -5.7734   23.3022 Cl  0  0  0  0  0  0  0  0  0  0  0  0
   12.9453   -6.1534   20.6124 C   0  0  0  0  0  0  0  0  0  0  0  0
   13.3627   -6.6156   19.3609 C   0  0  0  0  0  0  0  0  0  0  0  0
   15.8907   -9.7383   13.0615 O   0  0  0  0  0  0  0  0  0  0  0  0
   16.1295  -10.6681   12.0131 C   0  0  0  0  0  0  0  0  0  0  0  0
   18.9325   -8.0073    8.0987 N   0  0  0  0  0  0  0  0  0  0  0  0
   20.0053   -7.7026    8.8643 C   0  0  0  0  0  0  0  0  0  0  0  0
   19.8644   -8.1806   10.1293 N   0  0  0  0  0  0  0  0  0  0  0  0
   18.6601   -8.7801   10.0708 C   0  0  0  0  0  0  0  0  0  0  0  0
   18.0517   -9.4195   11.0992 N   0  0  0  0  0  0  0  0  0  0  0  0
   16.8276   -9.9862   10.8917 C   0  0  0  0  0  0  0  0  0  0  0  0
   16.2023   -9.8933    9.6340 C   0  0  0  0  0  0  0  0  0  0  0  0
   16.8656   -9.2233    8.5988 C   0  0  0  0  0  0  0  0  0  0  0  0
   16.3294   -9.1300    7.4645 O   0  0  0  0  0  0  0  0  0  0  0  0
   18.0902   -8.6855    8.8652 N   0  0  0  0  0  0  0  0  0  0  0  0
   17.4820   -6.8996    6.4459 C   0  0  0  0  0  0  0  0  0  0  0  0
   18.7896   -7.6290    6.6941 C   0  0  0  0  0  0  0  0  0  0  0  0
   18.9410   -8.8294    5.7778 C   0  0  0  0  0  0  0  0  0  0  0  0
 30 31  1  0  0  0
 31 32  1  0  0  0
 31 20  1  0  0  0
 20 21  1  0  0  0
 21 22  2  0  0  0
 22 23  1  0  0  0
 23 24  2  0  0  0
 24 25  1  0  0  0
 25 19  1  0  0  0
 25 26  2  0  0  0
 19 18  1  0  0  0
 18  1  1  0  0  0
  1  2  2  0  0  0
  2  3  1  0  0  0
  3  4  2  0  0  0
  4  5  1  0  0  0
  5  7  1  0  0  0
  5  6  2  0  0  0
  7  8  1  0  0  0
  8  9  2  0  0  0
  8 11  1  0  0  0
 11 12  2  0  0  0
 12 13  1  0  0  0
 13 14  2  0  0  0
 14 15  1  0  0  0
 14 16  1  0  0  0
 16 17  2  0  0  0
 17 11  1  0  0  0
  6  1  1  0  0  0
 26 27  1  0  0  0
 27 28  2  0  0  0
 27 29  1  0  0  0
 29 20  1  0  0  0
 29 23  1  0  0  0
  7 10  1  0  0  0
M  END
>  <minimizedAffinity>
-7.89273

>  <minimizedRMSD>
1.45646

$$$$
ChemDiv-G756-2242 MCULE-6812693984 MolPort-010-744-718 PubChem-50802555 ZINC000033268639 ZINC33268639


 25 27  0  0  0  0  0  0  0  0999 V2000
   16.1758   -9.9333   11.9534 C   0  0  0  0  0  0  0  0  0  0  0  0
   16.7538   -9.6389   10.6155 C   0  0  0  0  0  0  0  0  0  0  0  0
   16.2046  -10.2204    9.4766 C   0  0  0  0  0  0  0  0  0  0  0  0
   16.7483   -9.9051    8.2323 C   0  0  0  0  0  0  0  0  0  0  0  0
   16.2547  -10.4344    7.1986 O   0  0  0  0  0  0  0  0  0  0  0  0
   17.8000   -9.0327    8.1429 N   0  0  0  0  0  0  0  0  0  0  0  0
   18.3322   -8.7246    6.9226 C   0  0  0  0  0  0  0  0  0  0  0  0
   19.4021   -7.8350    6.8146 C   0  0  0  0  0  0  0  0  0  0  0  0
   20.0734   -7.4498    5.2452 Cl  0  0  0  0  0  0  0  0  0  0  0  0
   19.9307   -7.2560    7.9664 C   0  0  0  0  0  0  0  0  0  0  0  0
   19.3875   -7.5707    9.2106 C   0  0  0  0  0  0  0  0  0  0  0  0
   18.3171   -8.4654    9.2869 C   0  0  0  0  0  0  0  0  0  0  0  0
   17.7894   -8.7702   10.5006 N   0  0  0  0  0  0  0  0  0  0  0  0
   16.9282   -9.2624   12.9557 O   0  0  0  0  0  0  0  0  0  0  0  0
   16.8581   -9.6073   16.6392 C   0  0  0  0  0  0  0  0  0  0  0  0
   16.6667   -9.1018   15.3441 C   0  0  0  0  0  0  0  0  0  0  0  0
   17.1384   -9.8000   14.2279 C   0  0  0  0  0  0  0  0  0  0  0  0
   17.8098  -11.0191   14.4114 C   0  0  0  0  0  0  0  0  0  0  0  0
   18.0040  -11.5280   15.6976 C   0  0  0  0  0  0  0  0  0  0  0  0
   17.5293  -10.8229   16.8067 C   0  0  0  0  0  0  0  0  0  0  0  0
   14.9731   -7.3284   19.1569 C   0  0  0  0  0  0  0  0  0  0  0  0
   15.3212   -7.9563   17.8561 C   0  0  0  0  0  0  0  0  0  0  0  0
   14.6734   -7.6381   16.8242 O   0  0  0  0  0  0  0  0  0  0  0  0
   16.3868   -8.9132   17.8023 N   0  0  0  0  0  0  0  0  0  0  0  0
   16.8422   -9.1149   18.6515 H   0  0  0  0  0  0  0  0  0  0  0  0
 21 22  1  0  0  0
 22 23  2  0  0  0
 22 24  1  0  0  0
 24 15  1  0  0  0
 15 16  2  0  0  0
 16 17  1  0  0  0
 17 14  1  0  0  0
 17 18  2  0  0  0
 14  1  1  0  0  0
  1  2  1  0  0  0
  2  3  2  0  0  0
  3  4  1  0  0  0
  4  5  2  0  0  0
  4  6  1  0  0  0
  6  7  1  0  0  0
  7  8  2  0  0  0
  8  9  1  0  0  0
  8 10  1  0  0  0
 10 11  2  0  0  0
 11 12  1  0  0  0
 12 13  2  0  0  0
 12  6  1  0  0  0
 13  2  1  0  0  0
 18 19  1  0  0  0
 19 20  2  0  0  0
 20 15  1  0  0  0
 24 25  1  0  0  0
M  END
>  <minimizedAffinity>
-7.88290

>  <minimizedRMSD>
0.91150

$$$$
ChemDiv-C679-4220 MCULE-9275050256 MolPort-007-655-827 PubChem-46258337 ZINC000020859188


 34 38  0  0  0  0  0  0  0  0999 V2000
   16.8982   -9.5553   14.8909 C   0  0  0  0  0  0  0  0  0  0  0  0
   17.4251  -10.6793   15.5461 C   0  0  0  0  0  0  0  0  0  0  0  0
   17.2764  -10.8215   16.9278 C   0  0  0  0  0  0  0  0  0  0  0  0
   16.6012   -9.8428   17.6619 C   0  0  0  0  0  0  0  0  0  0  0  0
   16.0711   -8.7175   17.0223 C   0  0  0  0  0  0  0  0  0  0  0  0
   16.2243   -8.5812   15.6342 C   0  0  0  0  0  0  0  0  0  0  0  0
   15.3853   -7.7354   17.8109 N   0  0  0  0  0  0  0  0  0  0  0  0
   13.9753   -7.6739   18.0754 C   0  0  0  0  0  0  0  0  0  0  0  0
   13.1939   -8.5406   17.5972 O   0  0  0  0  0  0  0  0  0  0  0  0
   15.9400   -7.0286   18.2136 H   0  0  0  0  0  0  0  0  0  0  0  0
   13.4365   -6.5879   18.9129 C   0  0  0  0  0  0  0  0  0  0  0  0
   12.3032   -5.8527   18.4853 C   0  0  0  0  0  0  0  0  0  0  0  0
   11.7781   -4.8134   19.2742 C   0  0  0  0  0  0  0  0  0  0  0  0
   12.4137   -4.5406   20.4818 C   0  0  0  0  0  0  0  0  0  0  0  0
   13.4991   -5.2395   20.8991 C   0  0  0  0  0  0  0  0  0  0  0  0
   13.9157   -4.7548   22.1227 O   0  0  0  0  0  0  0  0  0  0  0  0
   13.0376   -3.6844   22.4987 C   0  0  0  0  0  0  0  0  0  0  0  0
   12.0942   -3.5821   21.4226 O   0  0  0  0  0  0  0  0  0  0  0  0
   14.0468   -6.2742   20.1459 C   0  0  0  0  0  0  0  0  0  0  0  0
   17.0291   -9.3824   13.5107 O   0  0  0  0  0  0  0  0  0  0  0  0
   18.0279  -10.0439   12.7455 C   0  0  0  0  0  0  0  0  0  0  0  0
   17.5089   -9.0599    8.6783 N   0  0  0  0  0  0  0  0  0  0  0  0
   16.5190   -9.7581    9.2950 C   0  0  0  0  0  0  0  0  0  0  0  0
   15.4770  -10.0915    8.6707 O   0  0  0  0  0  0  0  0  0  0  0  0
   16.6740  -10.1014   10.6426 C   0  0  0  0  0  0  0  0  0  0  0  0
   17.8509   -9.7167   11.3061 C   0  0  0  0  0  0  0  0  0  0  0  0
   18.8129   -9.0097   10.6481 N   0  0  0  0  0  0  0  0  0  0  0  0
   18.6257   -8.6964    9.3428 C   0  0  0  0  0  0  0  0  0  0  0  0
   19.6863   -7.8417    8.3612 S   0  0  0  0  0  0  0  0  0  0  0  0
   18.6015   -7.9882    7.0573 C   0  0  0  0  0  0  0  0  0  0  0  0
   17.4842   -8.6713    7.4055 N   0  0  0  0  0  0  0  0  0  0  0  0
   18.8201   -7.4431    5.6847 C   0  0  0  0  0  0  0  0  0  0  0  0
   20.2433   -6.9437    5.5294 C   0  0  0  0  0  0  0  0  0  0  0  0
   18.5252   -8.4995    4.6378 C   0  0  0  0  0  0  0  0  0  0  0  0
 22 23  1  0  0  0
 23 24  2  0  0  0
 23 25  1  0  0  0
 25 26  2  0  0  0
 26 27  1  0  0  0
 27 28  2  0  0  0
 28 29  1  0  0  0
 29 30  1  0  0  0
 30 32  1  0  0  0
 32 33  1  0  0  0
 32 34  1  0  0  0
 30 31  2  0  0  0
 26 21  1  0  0  0
 21 20  1  0  0  0
 20  1  1  0  0  0
  1  2  2  0  0  0
  2  3  1  0  0  0
  3  4  2  0  0  0
  4  5  1  0  0  0
  5  6  2  0  0  0
  5  7  1  0  0  0
  7  8  1  0  0  0
  8  9  2  0  0  0
  8 11  1  0  0  0
 11 12  2  0  0  0
 12 13  1  0  0  0
 13 14  2  0  0  0
 14 15  1  0  0  0
 15 16  1  0  0  0
 16 17  1  0  0  0
 17 18  1  0  0  0
 15 19  2  0  0  0
 28 22  1  0  0  0
  6  1  1  0  0  0
 19 11  1  0  0  0
 31 22  1  0  0  0
 18 14  1  0  0  0
  7 10  1  0  0  0
M  END
>  <minimizedAffinity>
-7.88217

>  <minimizedRMSD>
1.33230

$$$$
ChemDiv-C679-4384 MCULE-6713712152 MolPort-007-655-864 PubChem-20874258 ZINC000020859227


 33 36  0  0  0  0  0  0  0  0999 V2000
   17.3361   -9.9566   15.0588 C   0  0  0  0  0  0  0  0  0  0  0  0
   17.9520  -11.0919   15.6083 C   0  0  0  0  0  0  0  0  0  0  0  0
   17.8919  -11.3269   16.9843 C   0  0  0  0  0  0  0  0  0  0  0  0
   17.2162  -10.4311   17.8176 C   0  0  0  0  0  0  0  0  0  0  0  0
   16.5956   -9.2973   17.2828 C   0  0  0  0  0  0  0  0  0  0  0  0
   16.6618   -9.0663   15.9005 C   0  0  0  0  0  0  0  0  0  0  0  0
   15.9158   -8.3986   18.1702 N   0  0  0  0  0  0  0  0  0  0  0  0
   14.7467   -7.6238   17.8733 C   0  0  0  0  0  0  0  0  0  0  0  0
   14.1647   -7.7171   16.7601 O   0  0  0  0  0  0  0  0  0  0  0  0
   16.2902   -8.3043   19.0758 H   0  0  0  0  0  0  0  0  0  0  0  0
   14.1854   -6.7233   18.9148 C   0  0  0  0  0  0  0  0  0  0  0  0
   12.4396   -6.3760   18.5531 S   0  0  0  0  0  0  0  0  0  0  0  0
   12.1227   -5.8159   20.2206 C   0  0  0  0  0  0  0  0  0  0  0  0
   12.9728   -6.2009   21.2633 C   0  0  0  0  0  0  0  0  0  0  0  0
   12.7209   -5.7658   22.5682 C   0  0  0  0  0  0  0  0  0  0  0  0
   11.6161   -4.9498   22.8321 C   0  0  0  0  0  0  0  0  0  0  0  0
   10.7628   -4.5687   21.7912 C   0  0  0  0  0  0  0  0  0  0  0  0
   11.0164   -5.0013   20.4857 C   0  0  0  0  0  0  0  0  0  0  0  0
   11.3471   -4.4892   24.2192 C   0  0  0  0  0  0  0  0  0  0  0  0
   17.3788   -9.6889   13.6883 O   0  0  0  0  0  0  0  0  0  0  0  0
   18.0366  -10.5386   12.7572 C   0  0  0  0  0  0  0  0  0  0  0  0
   17.4842   -8.9386    8.8964 N   0  0  0  0  0  0  0  0  0  0  0  0
   17.4555   -8.3653    7.6955 N   0  0  0  0  0  0  0  0  0  0  0  0
   18.5910   -7.6729    7.4354 C   0  0  0  0  0  0  0  0  0  0  0  0
   19.7050   -7.7691    8.7129 S   0  0  0  0  0  0  0  0  0  0  0  0
   18.6268   -8.7199    9.5815 C   0  0  0  0  0  0  0  0  0  0  0  0
   18.8256   -9.2353   10.8188 N   0  0  0  0  0  0  0  0  0  0  0  0
   17.8508  -10.0028   11.3834 C   0  0  0  0  0  0  0  0  0  0  0  0
   16.6474  -10.2402   10.6975 C   0  0  0  0  0  0  0  0  0  0  0  0
   16.4800   -9.6885    9.4226 C   0  0  0  0  0  0  0  0  0  0  0  0
   15.4139   -9.8845    8.7798 O   0  0  0  0  0  0  0  0  0  0  0  0
   18.8462   -6.9750    6.1464 C   0  0  0  0  0  0  0  0  0  0  0  0
   20.2026   -7.3767    5.6028 C   0  0  0  0  0  0  0  0  0  0  0  0
 22 23  1  0  0  0
 23 24  2  0  0  0
 24 25  1  0  0  0
 25 26  1  0  0  0
 26 27  2  0  0  0
 27 28  1  0  0  0
 28 21  1  0  0  0
 21 20  1  0  0  0
 20  1  1  0  0  0
  1  2  2  0  0  0
  2  3  1  0  0  0
  3  4  2  0  0  0
  4  5  1  0  0  0
  5  6  2  0  0  0
  5  7  1  0  0  0
  7  8  1  0  0  0
  8 11  1  0  0  0
 11 12  1  0  0  0
 12 13  1  0  0  0
 13 14  2  0  0  0
 14 15  1  0  0  0
 15 16  2  0  0  0
 16 17  1  0  0  0
 17 18  2  0  0  0
 16 19  1  0  0  0
  8  9  2  0  0  0
 28 29  2  0  0  0
 29 30  1  0  0  0
 30 31  2  0  0  0
 24 32  1  0  0  0
 32 33  1  0  0  0
 26 22  1  0  0  0
  6  1  1  0  0  0
 18 13  1  0  0  0
 30 22  1  0  0  0
  7 10  1  0  0  0
M  END
>  <minimizedAffinity>
-7.87934

>  <minimizedRMSD>
1.00022

$$$$
ChemDiv-G357-1528 MCULE-5192480467 MolPort-007-847-568 PubChem-46343415 ZINC000021632587 ZINC21632587


 33 36  0  0  0  0  0  0  0  0999 V2000
   16.0170   -8.7073   16.8657 C   0  0  0  0  0  0  0  0  0  0  0  0
   15.7375   -8.7108   15.4911 C   0  0  0  0  0  0  0  0  0  0  0  0
   16.3510   -9.6408   14.6476 C   0  0  0  0  0  0  0  0  0  0  0  0
   17.2523  -10.5791   15.1664 C   0  0  0  0  0  0  0  0  0  0  0  0
   17.5325  -10.5744   16.5398 C   0  0  0  0  0  0  0  0  0  0  0  0
   16.9185   -9.6432   17.3824 C   0  0  0  0  0  0  0  0  0  0  0  0
   14.0090   -7.5311   17.9398 C   0  0  0  0  0  0  0  0  0  0  0  0
   13.1486   -8.2006   17.3092 O   0  0  0  0  0  0  0  0  0  0  0  0
   15.4119   -7.7650   17.7614 N   0  0  0  0  0  0  0  0  0  0  0  0
   16.0232   -7.2227   18.3105 H   0  0  0  0  0  0  0  0  0  0  0  0
   13.5598   -6.4660   18.8800 C   0  0  0  0  0  0  0  0  0  0  0  0
   13.2529   -7.0281   20.1521 O   0  0  0  0  0  0  0  0  0  0  0  0
   12.8602   -4.4956   21.1999 F   0  0  0  0  0  0  0  0  0  0  0  0
   13.6808   -5.3587   21.8473 C   0  0  0  0  0  0  0  0  0  0  0  0
   13.8942   -6.6470   21.3374 C   0  0  0  0  0  0  0  0  0  0  0  0
   14.7497   -7.5254   22.0234 C   0  0  0  0  0  0  0  0  0  0  0  0
   15.3787   -7.1208   23.2038 C   0  0  0  0  0  0  0  0  0  0  0  0
   15.1593   -5.8361   23.7066 C   0  0  0  0  0  0  0  0  0  0  0  0
   14.3114   -4.9561   23.0288 C   0  0  0  0  0  0  0  0  0  0  0  0
   17.8960  -11.5567   14.2743 C   0  0  0  0  0  0  0  0  0  0  0  0
   18.2846  -12.6680   14.7297 O   0  0  0  0  0  0  0  0  0  0  0  0
   18.0762  -11.2477   12.9242 O   0  0  0  0  0  0  0  0  0  0  0  0
   18.6437  -10.0155   12.5050 C   0  0  0  0  0  0  0  0  0  0  0  0
   18.1433   -9.6733   11.1476 C   0  0  0  0  0  0  0  0  0  0  0  0
   16.8900  -10.1453   10.7256 C   0  0  0  0  0  0  0  0  0  0  0  0
   16.4289   -9.7850    9.4543 C   0  0  0  0  0  0  0  0  0  0  0  0
   15.3094  -10.1973    9.0482 O   0  0  0  0  0  0  0  0  0  0  0  0
   17.2069   -8.9858    8.6742 N   0  0  0  0  0  0  0  0  0  0  0  0
   16.9074   -8.5422    7.4232 C   0  0  0  0  0  0  0  0  0  0  0  0
   17.8911   -7.7254    6.8534 C   0  0  0  0  0  0  0  0  0  0  0  0
   19.1551   -7.5752    7.9750 S   0  0  0  0  0  0  0  0  0  0  0  0
   18.4024   -8.5418    9.1108 C   0  0  0  0  0  0  0  0  0  0  0  0
   18.8836   -8.8675   10.3354 N   0  0  0  0  0  0  0  0  0  0  0  0
 13 14  1  0  0  0
 14 15  2  0  0  0
 15 12  1  0  0  0
 15 16  1  0  0  0
 12 11  1  0  0  0
 11  7  1  0  0  0
  7  8  2  0  0  0
  7  9  1  0  0  0
  9  1  1  0  0  0
  1  2  2  0  0  0
  2  3  1  0  0  0
  3  4  2  0  0  0
  4  5  1  0  0  0
  4 20  1  0  0  0
  5  6  2  0  0  0
  6  1  1  0  0  0
 20 21  2  0  0  0
 20 22  1  0  0  0
 22 23  1  0  0  0
 23 24  1  0  0  0
 24 25  2  0  0  0
 25 26  1  0  0  0
 26 27  2  0  0  0
 26 28  1  0  0  0
 28 29  1  0  0  0
 29 30  2  0  0  0
 30 31  1  0  0  0
 31 32  1  0  0  0
 32 33  2  0  0  0
 32 28  1  0  0  0
 33 24  1  0  0  0
 16 17  2  0  0  0
 17 18  1  0  0  0
 18 19  2  0  0  0
 19 14  1  0  0  0
  9 10  1  0  0  0
M  END
>  <minimizedAffinity>
-7.87848

>  <minimizedRMSD>
2.68489

$$$$
ChemDiv-G756-2807 MCULE-3680869287 MolPort-007-880-094 PubChem-46356805 ZINC000033068321 ZINC33068321


 27 30  0  0  0  0  0  0  0  0999 V2000
   17.3843   -9.5870   13.2662 O   0  0  0  0  0  0  0  0  0  0  0  0
   17.3752  -10.0228   14.5935 C   0  0  0  0  0  0  0  0  0  0  0  0
   17.8769  -11.2817   14.9594 C   0  0  0  0  0  0  0  0  0  0  0  0
   17.8530  -11.6864   16.2962 C   0  0  0  0  0  0  0  0  0  0  0  0
   17.3282  -10.8371   17.2739 C   0  0  0  0  0  0  0  0  0  0  0  0
   16.8238   -9.5805   16.9236 C   0  0  0  0  0  0  0  0  0  0  0  0
   16.8520   -9.1798   15.5791 C   0  0  0  0  0  0  0  0  0  0  0  0
   16.2968   -8.7365   17.9563 N   0  0  0  0  0  0  0  0  0  0  0  0
   15.1664   -7.8583   17.8544 C   0  0  0  0  0  0  0  0  0  0  0  0
   14.4819   -7.8009   16.7973 O   0  0  0  0  0  0  0  0  0  0  0  0
   16.7584   -8.7622   18.8255 H   0  0  0  0  0  0  0  0  0  0  0  0
   14.7628   -7.0395   19.0373 C   0  0  0  0  0  0  0  0  0  0  0  0
   13.4652   -7.5723   19.6176 C   0  0  0  0  0  0  0  0  0  0  0  0
   14.7793   -7.8965   20.2904 C   0  0  0  0  0  0  0  0  0  0  0  0
   18.5478   -9.6339   12.4508 C   0  0  0  0  0  0  0  0  0  0  0  0
   20.1182   -6.9940    5.7921 C   0  0  0  0  0  0  0  0  0  0  0  0
   19.1896   -7.7152    6.7007 C   0  0  0  0  0  0  0  0  0  0  0  0
   19.5362   -7.9187    8.0351 C   0  0  0  0  0  0  0  0  0  0  0  0
   18.6538   -8.5986    8.8778 C   0  0  0  0  0  0  0  0  0  0  0  0
   18.9934   -8.7957   10.1778 N   0  0  0  0  0  0  0  0  0  0  0  0
   18.1650   -9.4561   11.0252 C   0  0  0  0  0  0  0  0  0  0  0  0
   16.9382   -9.9295   10.5698 C   0  0  0  0  0  0  0  0  0  0  0  0
   16.5927   -9.7255    9.2349 C   0  0  0  0  0  0  0  0  0  0  0  0
   15.4827  -10.1579    8.8188 O   0  0  0  0  0  0  0  0  0  0  0  0
   17.4497   -9.0639    8.3964 N   0  0  0  0  0  0  0  0  0  0  0  0
   17.1098   -8.8643    7.0878 C   0  0  0  0  0  0  0  0  0  0  0  0
   17.9705   -8.1892    6.2204 C   0  0  0  0  0  0  0  0  0  0  0  0
 16 17  1  0  0  0
 17 18  2  0  0  0
 18 19  1  0  0  0
 19 20  2  0  0  0
 20 21  1  0  0  0
 21 15  1  0  0  0
 21 22  2  0  0  0
 15  1  1  0  0  0
  1  2  1  0  0  0
  2  3  2  0  0  0
  3  4  1  0  0  0
  4  5  2  0  0  0
  5  6  1  0  0  0
  6  8  1  0  0  0
  6  7  2  0  0  0
  8  9  1  0  0  0
  9 10  2  0  0  0
  9 12  1  0  0  0
 12 13  1  0  0  0
 13 14  1  0  0  0
 14 12  1  0  0  0
  7  2  1  0  0  0
 22 23  1  0  0  0
 23 24  2  0  0  0
 23 25  1  0  0  0
 25 26  1  0  0  0
 25 19  1  0  0  0
 26 27  2  0  0  0
 27 17  1  0  0  0
  8 11  1  0  0  0
M  END
>  <minimizedAffinity>
-7.87812

>  <minimizedRMSD>
1.13055

$$$$
ChemDiv-C679-4893 MCULE-7194800218 MolPort-007-656-005 PubChem-46258427 ZINC000013368313 ZINC13368313


 33 37  0  0  0  0  0  0  0  0999 V2000
   16.0695   -8.7157   17.2728 C   0  0  0  0  0  0  0  0  0  0  0  0
   16.2045   -8.5828   15.8825 C   0  0  0  0  0  0  0  0  0  0  0  0
   16.9107   -9.5337   15.1393 C   0  0  0  0  0  0  0  0  0  0  0  0
   17.4882  -10.6313   15.7968 C   0  0  0  0  0  0  0  0  0  0  0  0
   17.3576  -10.7702   17.1806 C   0  0  0  0  0  0  0  0  0  0  0  0
   16.6502   -9.8145   17.9146 C   0  0  0  0  0  0  0  0  0  0  0  0
   13.9257   -7.6560   18.2068 C   0  0  0  0  0  0  0  0  0  0  0  0
   13.1602   -8.4561   17.6032 O   0  0  0  0  0  0  0  0  0  0  0  0
   15.3508   -7.7574   18.0613 N   0  0  0  0  0  0  0  0  0  0  0  0
   15.8916   -7.0994   18.5551 H   0  0  0  0  0  0  0  0  0  0  0  0
   12.2571   -4.6035   20.7133 C   0  0  0  0  0  0  0  0  0  0  0  0
   11.8516   -4.7216   19.3805 C   0  0  0  0  0  0  0  0  0  0  0  0
   12.3952   -5.7162   18.5626 C   0  0  0  0  0  0  0  0  0  0  0  0
   13.3528   -6.6070   19.0687 C   0  0  0  0  0  0  0  0  0  0  0  0
   13.7590   -6.4880   20.4050 C   0  0  0  0  0  0  0  0  0  0  0  0
   13.2158   -5.4936   21.2230 C   0  0  0  0  0  0  0  0  0  0  0  0
   10.9580   -3.8757   22.6884 C   0  0  0  0  0  0  0  0  0  0  0  0
   11.6948   -3.5986   21.5052 O   0  0  0  0  0  0  0  0  0  0  0  0
   17.0225   -9.3649   13.7570 O   0  0  0  0  0  0  0  0  0  0  0  0
   17.9111  -10.1356   12.9587 C   0  0  0  0  0  0  0  0  0  0  0  0
   17.7316   -9.7789   11.5267 C   0  0  0  0  0  0  0  0  0  0  0  0
   16.5502  -10.1429   10.8596 C   0  0  0  0  0  0  0  0  0  0  0  0
   16.3929   -9.7716    9.5198 C   0  0  0  0  0  0  0  0  0  0  0  0
   15.3461  -10.0847    8.8929 O   0  0  0  0  0  0  0  0  0  0  0  0
   17.3856   -9.0685    8.9134 N   0  0  0  0  0  0  0  0  0  0  0  0
   17.3575   -8.6496    7.6505 N   0  0  0  0  0  0  0  0  0  0  0  0
   18.4834   -7.9736    7.3105 C   0  0  0  0  0  0  0  0  0  0  0  0
   19.5655   -7.8500    8.6154 S   0  0  0  0  0  0  0  0  0  0  0  0
   18.5067   -8.7249    9.5814 C   0  0  0  0  0  0  0  0  0  0  0  0
   18.6956   -9.0641   10.8800 N   0  0  0  0  0  0  0  0  0  0  0  0
   18.6938   -7.3445    5.9725 C   0  0  0  0  0  0  0  0  0  0  0  0
   20.1736   -7.3344    5.6369 C   0  0  0  0  0  0  0  0  0  0  0  0
   19.2656   -8.3644    5.0048 C   0  0  0  0  0  0  0  0  0  0  0  0
 17 18  1  0  0  0
 18 11  1  0  0  0
 11 12  2  0  0  0
 12 13  1  0  0  0
 13 14  2  0  0  0
 14 15  1  0  0  0
 14  7  1  0  0  0
 15 16  2  0  0  0
 16 11  1  0  0  0
  7  8  2  0  0  0
  7  9  1  0  0  0
  9  1  1  0  0  0
  1  2  2  0  0  0
  2  3  1  0  0  0
  3 19  1  0  0  0
  3  4  2  0  0  0
 19 20  1  0  0  0
 20 21  1  0  0  0
 21 22  2  0  0  0
 22 23  1  0  0  0
 23 24  2  0  0  0
 23 25  1  0  0  0
 25 26  1  0  0  0
 26 27  2  0  0  0
 27 28  1  0  0  0
 27 31  1  0  0  0
 28 29  1  0  0  0
 29 30  2  0  0  0
 29 25  1  0  0  0
 30 21  1  0  0  0
 31 32  1  0  0  0
 32 33  1  0  0  0
 33 31  1  0  0  0
  4  5  1  0  0  0
  5  6  2  0  0  0
  6  1  1  0  0  0
  9 10  1  0  0  0
M  END
>  <minimizedAffinity>
-7.87778

>  <minimizedRMSD>
1.28636

$$$$
ChemDiv-G357-1745 CSC047872483 MCULE-8874642349 MolPort-007-847-632 PubChem-46343450 ZINC000021632794 ZINC21632794


 31 34  0  0  0  0  0  0  0  0999 V2000
   17.3615  -10.1199   14.6268 C   0  0  0  0  0  0  0  0  0  0  0  0
   16.7224   -8.8742   14.5817 C   0  0  0  0  0  0  0  0  0  0  0  0
   16.2517   -8.2801   15.7557 C   0  0  0  0  0  0  0  0  0  0  0  0
   16.4139   -8.9240   16.9912 C   0  0  0  0  0  0  0  0  0  0  0  0
   17.0517  -10.1678   17.0351 C   0  0  0  0  0  0  0  0  0  0  0  0
   17.5233  -10.7633   15.8616 C   0  0  0  0  0  0  0  0  0  0  0  0
   15.9433   -8.3469   18.2168 N   0  0  0  0  0  0  0  0  0  0  0  0
   14.7333   -7.5973   18.4079 C   0  0  0  0  0  0  0  0  0  0  0  0
   13.9556   -7.3759   17.4400 O   0  0  0  0  0  0  0  0  0  0  0  0
   16.5096   -8.4786   19.0113 H   0  0  0  0  0  0  0  0  0  0  0  0
   14.3981   -7.0811   19.7470 C   0  0  0  0  0  0  0  0  0  0  0  0
   13.2082   -6.3676   19.9562 C   0  0  0  0  0  0  0  0  0  0  0  0
   12.8910   -5.8788   21.2270 C   0  0  0  0  0  0  0  0  0  0  0  0
   13.7611   -6.0995   22.2979 C   0  0  0  0  0  0  0  0  0  0  0  0
   14.9482   -6.8091   22.0985 C   0  0  0  0  0  0  0  0  0  0  0  0
   15.2655   -7.2982   20.8278 C   0  0  0  0  0  0  0  0  0  0  0  0
   17.8551  -10.7416   13.3876 C   0  0  0  0  0  0  0  0  0  0  0  0
   18.2066  -11.9540   13.3849 O   0  0  0  0  0  0  0  0  0  0  0  0
   17.9324   -9.9838   12.2170 O   0  0  0  0  0  0  0  0  0  0  0  0
   16.8249   -9.8410   11.3396 C   0  0  0  0  0  0  0  0  0  0  0  0
   18.3337   -8.5650    4.9747 C   0  0  0  0  0  0  0  0  0  0  0  0
   18.7584   -8.2149    6.3616 C   0  0  0  0  0  0  0  0  0  0  0  0
   19.8117   -7.3234    6.5862 C   0  0  0  0  0  0  0  0  0  0  0  0
   19.9993   -7.1731    8.2615 S   0  0  0  0  0  0  0  0  0  0  0  0
   18.7535   -8.2319    8.6110 C   0  0  0  0  0  0  0  0  0  0  0  0
   18.3390   -8.5870    9.8515 N   0  0  0  0  0  0  0  0  0  0  0  0
   17.3092   -9.4666    9.9849 C   0  0  0  0  0  0  0  0  0  0  0  0
   16.6744   -9.9866    8.8490 C   0  0  0  0  0  0  0  0  0  0  0  0
   17.1278   -9.5982    7.5839 C   0  0  0  0  0  0  0  0  0  0  0  0
   16.5671  -10.0626    6.5559 O   0  0  0  0  0  0  0  0  0  0  0  0
   18.1717   -8.7183    7.4923 N   0  0  0  0  0  0  0  0  0  0  0  0
 21 22  1  0  0  0
 22 23  2  0  0  0
 23 24  1  0  0  0
 24 25  1  0  0  0
 25 26  2  0  0  0
 26 27  1  0  0  0
 27 20  1  0  0  0
 27 28  2  0  0  0
 20 19  1  0  0  0
 19 17  1  0  0  0
 17 18  2  0  0  0
 17  1  1  0  0  0
  1  2  2  0  0  0
  2  3  1  0  0  0
  3  4  2  0  0  0
  4  7  1  0  0  0
  4  5  1  0  0  0
  7  8  1  0  0  0
  8  9  2  0  0  0
  8 11  1  0  0  0
 11 12  2  0  0  0
 12 13  1  0  0  0
 13 14  2  0  0  0
 14 15  1  0  0  0
 15 16  2  0  0  0
 16 11  1  0  0  0
  5  6  2  0  0  0
  6  1  1  0  0  0
 28 29  1  0  0  0
 29 30  2  0  0  0
 29 31  1  0  0  0
 31 22  1  0  0  0
 31 25  1  0  0  0
  7 10  1  0  0  0
M  END
>  <minimizedAffinity>
-7.86594

>  <minimizedRMSD>
1.01915

$$$$
ChemDiv-C679-5382 MCULE-6709621440 MolPort-010-797-219 PubChem-52098569 ZINC000041085728 ZINC41085728


 32 35  0  0  0  0  0  0  0  0999 V2000
   16.5905   -9.5948   14.3536 C   0  0  0  0  0  0  0  0  0  0  0  0
   17.3095  -10.7666   14.6373 C   0  0  0  0  0  0  0  0  0  0  0  0
   17.6386  -11.0874   15.9565 C   0  0  0  0  0  0  0  0  0  0  0  0
   17.2525  -10.2402   16.9985 C   0  0  0  0  0  0  0  0  0  0  0  0
   16.5369   -9.0686   16.7305 C   0  0  0  0  0  0  0  0  0  0  0  0
   16.2085   -8.7532   15.4031 C   0  0  0  0  0  0  0  0  0  0  0  0
   16.1579   -8.2256   17.8270 N   0  0  0  0  0  0  0  0  0  0  0  0
   14.8423   -7.7350   18.1156 C   0  0  0  0  0  0  0  0  0  0  0  0
   13.8655   -8.0000   17.3661 O   0  0  0  0  0  0  0  0  0  0  0  0
   16.8752   -7.9559   18.4451 H   0  0  0  0  0  0  0  0  0  0  0  0
   14.6348   -6.8638   19.3017 C   0  0  0  0  0  0  0  0  0  0  0  0
   14.3892   -7.6691   20.4464 O   0  0  0  0  0  0  0  0  0  0  0  0
   14.3694   -7.1858   21.7615 C   0  0  0  0  0  0  0  0  0  0  0  0
   13.4745   -6.1863   22.2084 C   0  0  0  0  0  0  0  0  0  0  0  0
   12.5632   -5.6226   21.3782 F   0  0  0  0  0  0  0  0  0  0  0  0
   13.5175   -5.7555   23.5384 C   0  0  0  0  0  0  0  0  0  0  0  0
   14.4396   -6.3077   24.4299 C   0  0  0  0  0  0  0  0  0  0  0  0
   15.3250   -7.2946   23.9943 C   0  0  0  0  0  0  0  0  0  0  0  0
   15.2881   -7.7294   22.6672 C   0  0  0  0  0  0  0  0  0  0  0  0
   16.2437   -9.2451   13.0462 O   0  0  0  0  0  0  0  0  0  0  0  0
   16.0067  -10.2107   12.0303 C   0  0  0  0  0  0  0  0  0  0  0  0
   18.3958   -8.6593    6.0050 C   0  0  0  0  0  0  0  0  0  0  0  0
   18.6668   -8.4343    7.4551 C   0  0  0  0  0  0  0  0  0  0  0  0
   19.7478   -7.6510    7.8702 C   0  0  0  0  0  0  0  0  0  0  0  0
   19.7340   -7.6247    9.5625 S   0  0  0  0  0  0  0  0  0  0  0  0
   18.3777   -8.5949    9.6802 C   0  0  0  0  0  0  0  0  0  0  0  0
   17.7850   -8.9931   10.8321 N   0  0  0  0  0  0  0  0  0  0  0  0
   16.6829   -9.7895   10.7751 C   0  0  0  0  0  0  0  0  0  0  0  0
   16.1587  -10.1806    9.5358 C   0  0  0  0  0  0  0  0  0  0  0  0
   16.7954   -9.7509    8.3667 C   0  0  0  0  0  0  0  0  0  0  0  0
   16.3347  -10.0992    7.2471 O   0  0  0  0  0  0  0  0  0  0  0  0
   17.9060   -8.9580    8.4666 N   0  0  0  0  0  0  0  0  0  0  0  0
 22 23  1  0  0  0
 23 24  2  0  0  0
 24 25  1  0  0  0
 25 26  1  0  0  0
 26 27  2  0  0  0
 27 28  1  0  0  0
 28 21  1  0  0  0
 28 29  2  0  0  0
 21 20  1  0  0  0
 20  1  1  0  0  0
  1  2  2  0  0  0
  2  3  1  0  0  0
  3  4  2  0  0  0
  4  5  1  0  0  0
  5  7  1  0  0  0
  5  6  2  0  0  0
  7  8  1  0  0  0
  8  9  2  0  0  0
  8 11  1  0  0  0
 11 12  1  0  0  0
 12 13  1  0  0  0
 13 14  2  0  0  0
 14 15  1  0  0  0
 14 16  1  0  0  0
 16 17  2  0  0  0
 17 18  1  0  0  0
 18 19  2  0  0  0
 19 13  1  0  0  0
  6  1  1  0  0  0
 29 30  1  0  0  0
 30 31  2  0  0  0
 30 32  1  0  0  0
 32 23  1  0  0  0
 32 26  1  0  0  0
  7 10  1  0  0  0
M  END
>  <minimizedAffinity>
-7.86340

>  <minimizedRMSD>
1.81339

$$$$
ChemDiv-G756-0988 MCULE-6609832249 MolPort-010-744-689 PubChem-50802625 ZINC000033268609 ZINC33268609


 28 30  0  0  0  0  0  0  0  0999 V2000
   16.7186   -9.4615   16.9558 C   0  0  0  0  0  0  0  0  0  0  0  0
   16.7619   -9.0945   15.6021 C   0  0  0  0  0  0  0  0  0  0  0  0
   17.3268   -9.9473   14.6486 C   0  0  0  0  0  0  0  0  0  0  0  0
   17.8550  -11.1823   15.0563 C   0  0  0  0  0  0  0  0  0  0  0  0
   17.8159  -11.5537   16.4023 C   0  0  0  0  0  0  0  0  0  0  0  0
   17.2494  -10.6947   17.3477 C   0  0  0  0  0  0  0  0  0  0  0  0
   14.9941   -7.7676   17.8102 C   0  0  0  0  0  0  0  0  0  0  0  0
   14.3398   -7.7374   16.7346 O   0  0  0  0  0  0  0  0  0  0  0  0
   16.1480   -8.6069   17.9560 N   0  0  0  0  0  0  0  0  0  0  0  0
   16.5944   -8.5950   18.8334 H   0  0  0  0  0  0  0  0  0  0  0  0
   14.5475   -6.9249   18.9572 C   0  0  0  0  0  0  0  0  0  0  0  0
   13.2332   -7.7225   20.8964 C   0  0  0  0  0  0  0  0  0  0  0  0
   14.6081   -7.7016   20.2632 C   0  0  0  0  0  0  0  0  0  0  0  0
   15.5860   -7.0466   21.2208 C   0  0  0  0  0  0  0  0  0  0  0  0
   17.3502   -9.5451   13.3108 O   0  0  0  0  0  0  0  0  0  0  0  0
   18.5082   -9.6608   12.4946 C   0  0  0  0  0  0  0  0  0  0  0  0
   18.1327   -9.4778   11.0678 C   0  0  0  0  0  0  0  0  0  0  0  0
   16.9054   -9.9436   10.6058 C   0  0  0  0  0  0  0  0  0  0  0  0
   16.5670   -9.7346    9.2698 C   0  0  0  0  0  0  0  0  0  0  0  0
   15.4565  -10.1600    8.8478 O   0  0  0  0  0  0  0  0  0  0  0  0
   17.4313   -9.0757    8.4367 N   0  0  0  0  0  0  0  0  0  0  0  0
   17.0983   -8.8713    7.1271 C   0  0  0  0  0  0  0  0  0  0  0  0
   17.9664   -8.1990    6.2650 C   0  0  0  0  0  0  0  0  0  0  0  0
   19.1858   -7.7325    6.7519 C   0  0  0  0  0  0  0  0  0  0  0  0
   20.1223   -7.0142    5.8491 C   0  0  0  0  0  0  0  0  0  0  0  0
   19.5254   -7.9409    8.0873 C   0  0  0  0  0  0  0  0  0  0  0  0
   18.6356   -8.6180    8.9245 C   0  0  0  0  0  0  0  0  0  0  0  0
   18.9683   -8.8199   10.2256 N   0  0  0  0  0  0  0  0  0  0  0  0
 12 13  1  0  0  0
 13 14  1  0  0  0
 13 11  1  0  0  0
 11  7  1  0  0  0
  7  8  2  0  0  0
  7  9  1  0  0  0
  9  1  1  0  0  0
  1  2  2  0  0  0
  2  3  1  0  0  0
  3 15  1  0  0  0
  3  4  2  0  0  0
 15 16  1  0  0  0
 16 17  1  0  0  0
 17 18  2  0  0  0
 18 19  1  0  0  0
 19 20  2  0  0  0
 19 21  1  0  0  0
 21 22  1  0  0  0
 22 23  2  0  0  0
 23 24  1  0  0  0
 24 25  1  0  0  0
 24 26  2  0  0  0
 26 27  1  0  0  0
 27 28  2  0  0  0
 27 21  1  0  0  0
 28 17  1  0  0  0
  4  5  1  0  0  0
  5  6  2  0  0  0
  6  1  1  0  0  0
  9 10  1  0  0  0
M  END
>  <minimizedAffinity>
-7.85187

>  <minimizedRMSD>
1.19453

$$$$
ChemDiv-G355-3260 MCULE-9529939058 MolPort-010-743-024 PubChem-50793988 ZINC000035428401 ZINC35428401


 27 29  0  0  0  0  0  0  0  0999 V2000
   16.8909   -9.7089   16.6424 C   0  0  0  0  0  0  0  0  0  0  0  0
   17.4172  -10.9411   17.0302 C   0  0  0  0  0  0  0  0  0  0  0  0
   17.9553  -11.8081   16.0790 C   0  0  0  0  0  0  0  0  0  0  0  0
   17.9766  -11.4582   14.7254 C   0  0  0  0  0  0  0  0  0  0  0  0
   18.5701  -12.4471   13.7821 C   0  0  0  0  0  0  0  0  0  0  0  0
   17.4444  -10.2067   14.3159 C   0  0  0  0  0  0  0  0  0  0  0  0
   16.9095   -9.3529   15.2875 C   0  0  0  0  0  0  0  0  0  0  0  0
   15.1669   -8.0316   17.5356 C   0  0  0  0  0  0  0  0  0  0  0  0
   14.4832   -8.0210   16.4779 O   0  0  0  0  0  0  0  0  0  0  0  0
   16.3461   -8.8436   17.6476 N   0  0  0  0  0  0  0  0  0  0  0  0
   16.8307   -8.8018   18.5036 H   0  0  0  0  0  0  0  0  0  0  0  0
   13.2642   -6.8322   18.5611 C   0  0  0  0  0  0  0  0  0  0  0  0
   14.7345   -7.1822   18.6841 C   0  0  0  0  0  0  0  0  0  0  0  0
   14.9853   -7.8979   19.9972 C   0  0  0  0  0  0  0  0  0  0  0  0
   17.4108   -9.7480   12.9891 O   0  0  0  0  0  0  0  0  0  0  0  0
   18.5186   -9.2301   12.2666 C   0  0  0  0  0  0  0  0  0  0  0  0
   18.2034   -9.2156   10.8140 C   0  0  0  0  0  0  0  0  0  0  0  0
   17.0392   -9.8591   10.3459 C   0  0  0  0  0  0  0  0  0  0  0  0
   16.7509   -9.8081    8.9767 C   0  0  0  0  0  0  0  0  0  0  0  0
   15.7256  -10.3697    8.5095 O   0  0  0  0  0  0  0  0  0  0  0  0
   17.6069   -9.1348    8.1714 N   0  0  0  0  0  0  0  0  0  0  0  0
   17.5412   -8.9555    6.8918 O   0  0  0  0  0  0  0  0  0  0  0  0
   18.5788   -8.2357    6.5121 C   0  0  0  0  0  0  0  0  0  0  0  0
   18.8364   -7.8308    5.1053 C   0  0  0  0  0  0  0  0  0  0  0  0
   19.3917   -7.9105    7.6034 C   0  0  0  0  0  0  0  0  0  0  0  0
   18.7018   -8.5235    8.6318 C   0  0  0  0  0  0  0  0  0  0  0  0
   19.0220   -8.5452    9.9489 N   0  0  0  0  0  0  0  0  0  0  0  0
 12 13  1  0  0  0
 13 14  1  0  0  0
 13  8  1  0  0  0
  8  9  2  0  0  0
  8 10  1  0  0  0
 10  1  1  0  0  0
  1  2  2  0  0  0
  2  3  1  0  0  0
  3  4  2  0  0  0
  4  5  1  0  0  0
  4  6  1  0  0  0
  6 15  1  0  0  0
  6  7  2  0  0  0
 15 16  1  0  0  0
 16 17  1  0  0  0
 17 18  2  0  0  0
 18 19  1  0  0  0
 19 20  2  0  0  0
 19 21  1  0  0  0
 21 22  1  0  0  0
 22 23  1  0  0  0
 23 24  1  0  0  0
 23 25  2  0  0  0
 25 26  1  0  0  0
 26 27  2  0  0  0
 26 21  1  0  0  0
 27 17  1  0  0  0
  7  1  1  0  0  0
 10 11  1  0  0  0
M  END
>  <minimizedAffinity>
-7.84670

>  <minimizedRMSD>
0.93952

$$$$
ChemDiv-G756-0844 MCULE-3347663285 MolPort-007-879-434 PubChem-46356246 ZINC000033067940 ZINC33067940


 35 38  0  0  0  0  0  0  0  0999 V2000
   17.0198   -9.4606   16.6598 C   0  0  0  0  0  0  0  0  0  0  0  0
   17.4918  -10.6941   17.1172 C   0  0  0  0  0  0  0  0  0  0  0  0
   17.9877  -11.6395   16.2162 C   0  0  0  0  0  0  0  0  0  0  0  0
   18.0167  -11.3602   14.8471 C   0  0  0  0  0  0  0  0  0  0  0  0
   18.5512  -12.3871   13.9097 C   0  0  0  0  0  0  0  0  0  0  0  0
   17.5463  -10.1256   14.3712 C   0  0  0  0  0  0  0  0  0  0  0  0
   17.0498   -9.1827   15.2860 C   0  0  0  0  0  0  0  0  0  0  0  0
   14.8491   -7.1386   18.7967 N   0  0  0  0  0  0  0  0  0  0  0  0
   15.1564   -8.0999   17.7791 C   0  0  0  0  0  0  0  0  0  0  0  0
   14.2476   -8.5701   17.0430 O   0  0  0  0  0  0  0  0  0  0  0  0
   16.5182   -8.5158   17.6153 N   0  0  0  0  0  0  0  0  0  0  0  0
   15.6058   -6.8126   19.3356 H   0  0  0  0  0  0  0  0  0  0  0  0
   17.1787   -8.1103   18.2224 H   0  0  0  0  0  0  0  0  0  0  0  0
   13.2819   -6.2187   20.4407 C   0  0  0  0  0  0  0  0  0  0  0  0
   13.5565   -6.5992   19.1155 C   0  0  0  0  0  0  0  0  0  0  0  0
   12.5645   -6.4444   18.1343 C   0  0  0  0  0  0  0  0  0  0  0  0
   11.3139   -5.9180   18.4640 C   0  0  0  0  0  0  0  0  0  0  0  0
   11.0417   -5.5405   19.7795 C   0  0  0  0  0  0  0  0  0  0  0  0
   12.0206   -5.6899   20.7638 C   0  0  0  0  0  0  0  0  0  0  0  0
   14.0293   -6.1571   22.8011 C   0  0  0  0  0  0  0  0  0  0  0  0
   14.2721   -6.3737   21.4177 O   0  0  0  0  0  0  0  0  0  0  0  0
   17.5788   -9.8537   12.9989 O   0  0  0  0  0  0  0  0  0  0  0  0
   16.4599  -10.0618   12.1469 C   0  0  0  0  0  0  0  0  0  0  0  0
   16.8319   -9.7298   10.7465 C   0  0  0  0  0  0  0  0  0  0  0  0
   16.0757  -10.2247    9.6898 C   0  0  0  0  0  0  0  0  0  0  0  0
   16.4632   -9.9206    8.3863 C   0  0  0  0  0  0  0  0  0  0  0  0
   15.7749  -10.3654    7.4267 O   0  0  0  0  0  0  0  0  0  0  0  0
   17.5744   -9.1526    8.1595 N   0  0  0  0  0  0  0  0  0  0  0  0
   17.9479   -8.8589    6.8784 C   0  0  0  0  0  0  0  0  0  0  0  0
   19.0769   -8.0816    6.6216 C   0  0  0  0  0  0  0  0  0  0  0  0
   19.8314   -7.6010    7.6884 C   0  0  0  0  0  0  0  0  0  0  0  0
   19.4560   -7.8971    8.9973 C   0  0  0  0  0  0  0  0  0  0  0  0
   20.2795   -7.3715   10.1240 C   0  0  0  0  0  0  0  0  0  0  0  0
   18.3126   -8.6818    9.2247 C   0  0  0  0  0  0  0  0  0  0  0  0
   17.9334   -8.9791   10.4974 N   0  0  0  0  0  0  0  0  0  0  0  0
 20 21  1  0  0  0
 21 14  1  0  0  0
 14 15  2  0  0  0
 15  8  1  0  0  0
  8  9  1  0  0  0
  9 10  2  0  0  0
  9 11  1  0  0  0
 11  1  1  0  0  0
  1  2  2  0  0  0
  2  3  1  0  0  0
  3  4  2  0  0  0
  4  5  1  0  0  0
  4  6  1  0  0  0
  6 22  1  0  0  0
 22 23  1  0  0  0
 23 24  1  0  0  0
 24 25  2  0  0  0
 25 26  1  0  0  0
 26 27  2  0  0  0
 26 28  1  0  0  0
 28 29  1  0  0  0
 29 30  2  0  0  0
 30 31  1  0  0  0
 31 32  2  0  0  0
 32 33  1  0  0  0
 32 34  1  0  0  0
 34 35  2  0  0  0
  6  7  2  0  0  0
 15 16  1  0  0  0
 16 17  2  0  0  0
 17 18  1  0  0  0
 18 19  2  0  0  0
 19 14  1  0  0  0
  7  1  1  0  0  0
 35 24  1  0  0  0
 34 28  1  0  0  0
  8 12  1  0  0  0
 11 13  1  0  0  0
M  END
>  <minimizedAffinity>
-7.83048

>  <minimizedRMSD>
1.05784

$$$$
ChemDiv-C679-4875 MCULE-6094403264 MolPort-007-656-000 PubChem-46258424 ZINC000013368303 ZINC13368303


 32 36  0  0  0  0  0  0  0  0999 V2000
   16.5059   -9.2842   17.3421 C   0  0  0  0  0  0  0  0  0  0  0  0
   16.5765   -9.0495   15.9604 C   0  0  0  0  0  0  0  0  0  0  0  0
   17.3112   -9.8998   15.1283 C   0  0  0  0  0  0  0  0  0  0  0  0
   17.9835  -10.9982   15.6868 C   0  0  0  0  0  0  0  0  0  0  0  0
   17.9177  -11.2378   17.0614 C   0  0  0  0  0  0  0  0  0  0  0  0
   17.1809  -10.3826   17.8849 C   0  0  0  0  0  0  0  0  0  0  0  0
   14.5906   -7.6651   17.8907 C   0  0  0  0  0  0  0  0  0  0  0  0
   14.1117   -7.6945   16.7242 O   0  0  0  0  0  0  0  0  0  0  0  0
   15.7599   -8.4308   18.2205 N   0  0  0  0  0  0  0  0  0  0  0  0
   16.0836   -8.3625   19.1477 H   0  0  0  0  0  0  0  0  0  0  0  0
   14.2352   -6.1916   22.6468 C   0  0  0  0  0  0  0  0  0  0  0  0
   13.7671   -6.1169   21.2386 C   0  0  0  0  0  0  0  0  0  0  0  0
   12.7152   -5.2632   20.8959 C   0  0  0  0  0  0  0  0  0  0  0  0
   12.2753   -5.1934   19.5714 C   0  0  0  0  0  0  0  0  0  0  0  0
   12.8875   -5.9777   18.5894 C   0  0  0  0  0  0  0  0  0  0  0  0
   13.9445   -6.8376   18.9247 C   0  0  0  0  0  0  0  0  0  0  0  0
   14.3793   -6.9013   20.2566 C   0  0  0  0  0  0  0  0  0  0  0  0
   17.3565   -9.6317   13.7579 O   0  0  0  0  0  0  0  0  0  0  0  0
   18.1252  -10.4084   12.8488 C   0  0  0  0  0  0  0  0  0  0  0  0
   17.8683   -9.9481   11.4587 C   0  0  0  0  0  0  0  0  0  0  0  0
   16.6363  -10.2316   10.8463 C   0  0  0  0  0  0  0  0  0  0  0  0
   16.4079   -9.7642    9.5473 C   0  0  0  0  0  0  0  0  0  0  0  0
   15.3147  -10.0039    8.9694 O   0  0  0  0  0  0  0  0  0  0  0  0
   17.3833   -9.0495    8.9270 N   0  0  0  0  0  0  0  0  0  0  0  0
   17.2904   -8.5444    7.6991 N   0  0  0  0  0  0  0  0  0  0  0  0
   18.4145   -7.8790    7.3332 C   0  0  0  0  0  0  0  0  0  0  0  0
   19.5792   -7.8761    8.5711 S   0  0  0  0  0  0  0  0  0  0  0  0
   18.5546   -8.7848    9.5427 C   0  0  0  0  0  0  0  0  0  0  0  0
   18.8127   -9.2181   10.8006 N   0  0  0  0  0  0  0  0  0  0  0  0
   18.5612   -7.1667    6.0288 C   0  0  0  0  0  0  0  0  0  0  0  0
   20.0139   -7.1893    5.5908 C   0  0  0  0  0  0  0  0  0  0  0  0
   19.0223   -8.1386    4.9580 C   0  0  0  0  0  0  0  0  0  0  0  0
 11 12  1  0  0  0
 12 13  2  0  0  0
 13 14  1  0  0  0
 14 15  2  0  0  0
 15 16  1  0  0  0
 16 17  2  0  0  0
 16  7  1  0  0  0
 17 12  1  0  0  0
  7  8  2  0  0  0
  7  9  1  0  0  0
  9  1  1  0  0  0
  1  2  2  0  0  0
  2  3  1  0  0  0
  3 18  1  0  0  0
  3  4  2  0  0  0
 18 19  1  0  0  0
 19 20  1  0  0  0
 20 21  2  0  0  0
 21 22  1  0  0  0
 22 23  2  0  0  0
 22 24  1  0  0  0
 24 25  1  0  0  0
 25 26  2  0  0  0
 26 27  1  0  0  0
 26 30  1  0  0  0
 27 28  1  0  0  0
 28 29  2  0  0  0
 28 24  1  0  0  0
 29 20  1  0  0  0
 30 31  1  0  0  0
 31 32  1  0  0  0
 32 30  1  0  0  0
  4  5  1  0  0  0
  5  6  2  0  0  0
  6  1  1  0  0  0
  9 10  1  0  0  0
M  END
>  <minimizedAffinity>
-7.82293

>  <minimizedRMSD>
0.87736

$$$$
ChemDiv-C679-4718 MCULE-3703447881 MolPort-007-655-976 PubChem-20874308 ZINC000013368272


 35 38  0  0  0  0  0  0  0  0999 V2000
   17.2686   -9.9551   14.7468 C   0  0  0  0  0  0  0  0  0  0  0  0
   17.7297  -11.1975   15.2097 C   0  0  0  0  0  0  0  0  0  0  0  0
   17.6690  -11.5072   16.5703 C   0  0  0  0  0  0  0  0  0  0  0  0
   17.1478  -10.5789   17.4757 C   0  0  0  0  0  0  0  0  0  0  0  0
   16.6852   -9.3369   17.0288 C   0  0  0  0  0  0  0  0  0  0  0  0
   16.7499   -9.0321   15.6604 C   0  0  0  0  0  0  0  0  0  0  0  0
   16.1574   -8.4113   17.9888 N   0  0  0  0  0  0  0  0  0  0  0  0
   14.8689   -7.7844   17.9563 C   0  0  0  0  0  0  0  0  0  0  0  0
   14.0470   -8.0234   17.0322 O   0  0  0  0  0  0  0  0  0  0  0  0
   16.7404   -8.1830   18.7486 H   0  0  0  0  0  0  0  0  0  0  0  0
   14.4806   -6.8634   19.0562 C   0  0  0  0  0  0  0  0  0  0  0  0
   13.2031   -7.2331   19.5576 O   0  0  0  0  0  0  0  0  0  0  0  0
   12.4707   -6.4220   20.4283 C   0  0  0  0  0  0  0  0  0  0  0  0
   11.4009   -5.6767   19.9212 C   0  0  0  0  0  0  0  0  0  0  0  0
   10.6493   -4.8547   20.7666 C   0  0  0  0  0  0  0  0  0  0  0  0
   10.9647   -4.7746   22.1257 C   0  0  0  0  0  0  0  0  0  0  0  0
   12.0316   -5.5160   22.6403 C   0  0  0  0  0  0  0  0  0  0  0  0
   12.7833   -6.3376   21.7952 C   0  0  0  0  0  0  0  0  0  0  0  0
   10.2365   -3.9778   22.9441 F   0  0  0  0  0  0  0  0  0  0  0  0
   17.3128   -9.6146   13.3926 O   0  0  0  0  0  0  0  0  0  0  0  0
   18.4661   -9.8182   12.5869 C   0  0  0  0  0  0  0  0  0  0  0  0
   17.4871   -9.0736    8.5538 N   0  0  0  0  0  0  0  0  0  0  0  0
   17.3162   -8.7561    7.2727 N   0  0  0  0  0  0  0  0  0  0  0  0
   18.3734   -8.0701    6.7740 C   0  0  0  0  0  0  0  0  0  0  0  0
   19.5860   -7.8302    7.9371 S   0  0  0  0  0  0  0  0  0  0  0  0
   18.6596   -8.6513    9.0723 C   0  0  0  0  0  0  0  0  0  0  0  0
   18.9937   -8.8870   10.3646 N   0  0  0  0  0  0  0  0  0  0  0  0
   18.1266   -9.5753   11.1600 C   0  0  0  0  0  0  0  0  0  0  0  0
   16.8954  -10.0199   10.6498 C   0  0  0  0  0  0  0  0  0  0  0  0
   16.5878   -9.7557    9.3107 C   0  0  0  0  0  0  0  0  0  0  0  0
   15.4928  -10.1425    8.8226 O   0  0  0  0  0  0  0  0  0  0  0  0
   18.4469   -7.5791    5.3683 C   0  0  0  0  0  0  0  0  0  0  0  0
   19.3608   -8.4547    4.5209 C   0  0  0  0  0  0  0  0  0  0  0  0
   20.6463   -7.7285    4.1576 C   0  0  0  0  0  0  0  0  0  0  0  0
   20.5299   -6.2519    4.4822 C   0  0  0  0  0  0  0  0  0  0  0  0
 22 23  1  0  0  0
 23 24  2  0  0  0
 24 25  1  0  0  0
 25 26  1  0  0  0
 26 27  2  0  0  0
 27 28  1  0  0  0
 28 21  1  0  0  0
 21 20  1  0  0  0
 20  1  1  0  0  0
  1  2  2  0  0  0
  2  3  1  0  0  0
  3  4  2  0  0  0
  4  5  1  0  0  0
  5  6  2  0  0  0
  5  7  1  0  0  0
  7  8  1  0  0  0
  8 11  1  0  0  0
 11 12  1  0  0  0
 12 13  1  0  0  0
 13 14  2  0  0  0
 14 15  1  0  0  0
 15 16  2  0  0  0
 16 17  1  0  0  0
 17 18  2  0  0  0
 16 19  1  0  0  0
  8  9  2  0  0  0
 28 29  2  0  0  0
 29 30  1  0  0  0
 30 31  2  0  0  0
 24 32  1  0  0  0
 32 33  1  0  0  0
 33 34  1  0  0  0
 34 35  1  0  0  0
 26 22  1  0  0  0
  6  1  1  0  0  0
 18 13  1  0  0  0
 30 22  1  0  0  0
  7 10  1  0  0  0
M  END
>  <minimizedAffinity>
-7.81894

>  <minimizedRMSD>
1.59055

$$$$
ChemDiv-G355-3261 MCULE-2766256057 MolPort-010-743-025 PubChem-50793989 ZINC000035428403 ZINC35428403


 28 30  0  0  0  0  0  0  0  0999 V2000
   16.9054   -9.8193   16.6054 C   0  0  0  0  0  0  0  0  0  0  0  0
   17.4698  -11.0520   16.9333 C   0  0  0  0  0  0  0  0  0  0  0  0
   18.0292  -11.8571   15.9408 C   0  0  0  0  0  0  0  0  0  0  0  0
   18.0336  -11.4439   14.6050 C   0  0  0  0  0  0  0  0  0  0  0  0
   18.6521  -12.3692   13.6144 C   0  0  0  0  0  0  0  0  0  0  0  0
   17.4621  -10.1913   14.2562 C   0  0  0  0  0  0  0  0  0  0  0  0
   16.9063   -9.4004   15.2685 C   0  0  0  0  0  0  0  0  0  0  0  0
   15.3129   -8.0258   17.5120 C   0  0  0  0  0  0  0  0  0  0  0  0
   14.8197   -7.7500   16.3866 O   0  0  0  0  0  0  0  0  0  0  0  0
   16.3382   -9.0192   17.6516 N   0  0  0  0  0  0  0  0  0  0  0  0
   16.6887   -9.1671   18.5596 H   0  0  0  0  0  0  0  0  0  0  0  0
   14.8330   -7.2911   18.7144 C   0  0  0  0  0  0  0  0  0  0  0  0
   13.3468   -6.9996   18.5919 C   0  0  0  0  0  0  0  0  0  0  0  0
   13.0469   -7.5315   21.0088 C   0  0  0  0  0  0  0  0  0  0  0  0
   12.5610   -7.8181   19.6004 C   0  0  0  0  0  0  0  0  0  0  0  0
   17.4082   -9.6725   12.9525 O   0  0  0  0  0  0  0  0  0  0  0  0
   18.5077   -9.1337   12.2325 C   0  0  0  0  0  0  0  0  0  0  0  0
   18.2103   -9.1592   10.7763 C   0  0  0  0  0  0  0  0  0  0  0  0
   17.0766   -9.8544   10.3074 C   0  0  0  0  0  0  0  0  0  0  0  0
   16.8036   -9.8407    8.9341 C   0  0  0  0  0  0  0  0  0  0  0  0
   15.8057  -10.4489    8.4662 O   0  0  0  0  0  0  0  0  0  0  0  0
   17.6442   -9.1519    8.1257 N   0  0  0  0  0  0  0  0  0  0  0  0
   17.5880   -9.0000    6.8422 O   0  0  0  0  0  0  0  0  0  0  0  0
   18.6029   -8.2497    6.4605 C   0  0  0  0  0  0  0  0  0  0  0  0
   18.8628   -7.8628    5.0491 C   0  0  0  0  0  0  0  0  0  0  0  0
   19.3896   -7.8733    7.5546 C   0  0  0  0  0  0  0  0  0  0  0  0
   18.7101   -8.4915    8.5867 C   0  0  0  0  0  0  0  0  0  0  0  0
   19.0143   -8.4758    9.9077 N   0  0  0  0  0  0  0  0  0  0  0  0
 14 15  1  0  0  0
 15 13  1  0  0  0
 13 12  1  0  0  0
 12  8  1  0  0  0
  8  9  2  0  0  0
  8 10  1  0  0  0
 10  1  1  0  0  0
  1  2  2  0  0  0
  2  3  1  0  0  0
  3  4  2  0  0  0
  4  5  1  0  0  0
  4  6  1  0  0  0
  6 16  1  0  0  0
  6  7  2  0  0  0
 16 17  1  0  0  0
 17 18  1  0  0  0
 18 19  2  0  0  0
 19 20  1  0  0  0
 20 21  2  0  0  0
 20 22  1  0  0  0
 22 23  1  0  0  0
 23 24  1  0  0  0
 24 25  1  0  0  0
 24 26  2  0  0  0
 26 27  1  0  0  0
 27 28  2  0  0  0
 27 22  1  0  0  0
 28 18  1  0  0  0
  7  1  1  0  0  0
 10 11  1  0  0  0
M  END
>  <minimizedAffinity>
-7.81843

>  <minimizedRMSD>
0.93343

$$$$
ChemDiv-G756-0124 MCULE-7983895871 MolPort-007-878-994 PubChem-22580431 ZINC000021099519 ZINC21099519


 27 29  0  0  0  0  0  0  0  0999 V2000
   16.7979   -9.8209   16.9337 C   0  0  0  0  0  0  0  0  0  0  0  0
   16.7682   -9.6089   15.5468 C   0  0  0  0  0  0  0  0  0  0  0  0
   17.3742  -10.5164   14.6724 C   0  0  0  0  0  0  0  0  0  0  0  0
   18.0181  -11.6497   15.1936 C   0  0  0  0  0  0  0  0  0  0  0  0
   18.0522  -11.8666   16.5731 C   0  0  0  0  0  0  0  0  0  0  0  0
   17.4437  -10.9541   17.4389 C   0  0  0  0  0  0  0  0  0  0  0  0
   15.1884   -7.9245   17.5520 C   0  0  0  0  0  0  0  0  0  0  0  0
   14.7245   -7.8012   16.3867 O   0  0  0  0  0  0  0  0  0  0  0  0
   16.1873   -8.9068   17.8545 N   0  0  0  0  0  0  0  0  0  0  0  0
   16.4850   -8.9593   18.7914 H   0  0  0  0  0  0  0  0  0  0  0  0
   14.6810   -7.0452   18.6451 C   0  0  0  0  0  0  0  0  0  0  0  0
   15.2098   -7.2763   21.0517 C   0  0  0  0  0  0  0  0  0  0  0  0
   14.3988   -7.8456   19.9070 C   0  0  0  0  0  0  0  0  0  0  0  0
   12.9244   -7.7721   20.2584 C   0  0  0  0  0  0  0  0  0  0  0  0
   17.3222  -10.2693   13.2983 O   0  0  0  0  0  0  0  0  0  0  0  0
   18.4865  -10.0463   12.5138 C   0  0  0  0  0  0  0  0  0  0  0  0
   18.0913   -9.6571   11.1345 C   0  0  0  0  0  0  0  0  0  0  0  0
   16.8777  -10.0912   10.6095 C   0  0  0  0  0  0  0  0  0  0  0  0
   16.5194   -9.6891    9.3238 C   0  0  0  0  0  0  0  0  0  0  0  0
   15.4216  -10.0851    8.8442 O   0  0  0  0  0  0  0  0  0  0  0  0
   17.3511   -8.8759    8.6011 N   0  0  0  0  0  0  0  0  0  0  0  0
   16.9987   -8.4820    7.3407 C   0  0  0  0  0  0  0  0  0  0  0  0
   17.8335   -7.6509    6.5915 C   0  0  0  0  0  0  0  0  0  0  0  0
   19.0395   -7.2201    7.1409 C   0  0  0  0  0  0  0  0  0  0  0  0
   19.3985   -7.6217    8.4262 C   0  0  0  0  0  0  0  0  0  0  0  0
   18.5422   -8.4545    9.1504 C   0  0  0  0  0  0  0  0  0  0  0  0
   18.8942   -8.8444   10.4027 N   0  0  0  0  0  0  0  0  0  0  0  0
 12 13  1  0  0  0
 13 14  1  0  0  0
 13 11  1  0  0  0
 11  7  1  0  0  0
  7  8  2  0  0  0
  7  9  1  0  0  0
  9  1  1  0  0  0
  1  2  2  0  0  0
  2  3  1  0  0  0
  3 15  1  0  0  0
  3  4  2  0  0  0
 15 16  1  0  0  0
 16 17  1  0  0  0
 17 18  2  0  0  0
 18 19  1  0  0  0
 19 20  2  0  0  0
 19 21  1  0  0  0
 21 22  1  0  0  0
 22 23  2  0  0  0
 23 24  1  0  0  0
 24 25  2  0  0  0
 25 26  1  0  0  0
 26 27  2  0  0  0
 26 21  1  0  0  0
 27 17  1  0  0  0
  4  5  1  0  0  0
  5  6  2  0  0  0
  6  1  1  0  0  0
  9 10  1  0  0  0
M  END
>  <minimizedAffinity>
-7.81771

>  <minimizedRMSD>
1.41195

$$$$
ChemDiv-G357-2504 MCULE-4846312436 MolPort-007-847-835 PubChem-46343563 ZINC000021633512


 31 34  0  0  0  0  0  0  0  0999 V2000
   18.0045   -9.9951   12.2379 O   0  0  0  0  0  0  0  0  0  0  0  0
   17.8803  -10.7484   13.4075 C   0  0  0  0  0  0  0  0  0  0  0  0
   18.1998  -11.9695   13.4145 O   0  0  0  0  0  0  0  0  0  0  0  0
   17.3757  -10.1113   14.6344 C   0  0  0  0  0  0  0  0  0  0  0  0
   17.5224  -10.7417   15.8779 C   0  0  0  0  0  0  0  0  0  0  0  0
   17.0412  -10.1316   17.0396 C   0  0  0  0  0  0  0  0  0  0  0  0
   16.4086   -8.8860   16.9754 C   0  0  0  0  0  0  0  0  0  0  0  0
   16.2614   -8.2552   15.7312 C   0  0  0  0  0  0  0  0  0  0  0  0
   16.7419   -8.8640   14.5689 C   0  0  0  0  0  0  0  0  0  0  0  0
   15.9270   -8.2936   18.1894 N   0  0  0  0  0  0  0  0  0  0  0  0
   14.7059   -7.5633   18.3623 C   0  0  0  0  0  0  0  0  0  0  0  0
   13.9193   -7.3709   17.3949 O   0  0  0  0  0  0  0  0  0  0  0  0
   16.4941   -8.3997   18.9871 H   0  0  0  0  0  0  0  0  0  0  0  0
   14.3744   -7.0241   19.7147 C   0  0  0  0  0  0  0  0  0  0  0  0
   15.4944   -7.3147   20.6951 C   0  0  0  0  0  0  0  0  0  0  0  0
   13.0753   -7.6195   20.2223 C   0  0  0  0  0  0  0  0  0  0  0  0
   16.8906   -9.7141   11.4033 C   0  0  0  0  0  0  0  0  0  0  0  0
   18.2110   -8.7652    7.5015 N   0  0  0  0  0  0  0  0  0  0  0  0
   18.8014   -8.3330    6.3470 C   0  0  0  0  0  0  0  0  0  0  0  0
   18.3206   -8.6617    4.9602 C   0  0  0  0  0  0  0  0  0  0  0  0
   19.4446   -8.4756    3.9376 C   0  0  0  0  0  0  0  0  0  0  0  0
   20.0742   -7.0887    4.0874 C   0  0  0  0  0  0  0  0  0  0  0  0
   20.7429   -6.9203    5.4571 C   0  0  0  0  0  0  0  0  0  0  0  0
   19.8936   -7.4894    6.5529 C   0  0  0  0  0  0  0  0  0  0  0  0
   20.1629   -7.3072    8.2088 S   0  0  0  0  0  0  0  0  0  0  0  0
   18.8518   -8.2868    8.5967 C   0  0  0  0  0  0  0  0  0  0  0  0
   18.4429   -8.5893    9.8531 N   0  0  0  0  0  0  0  0  0  0  0  0
   17.3645   -9.4006   10.0296 C   0  0  0  0  0  0  0  0  0  0  0  0
   16.6730   -9.9068    8.9209 C   0  0  0  0  0  0  0  0  0  0  0  0
   17.1193   -9.5769    7.6372 C   0  0  0  0  0  0  0  0  0  0  0  0
   16.5087  -10.0301    6.6327 O   0  0  0  0  0  0  0  0  0  0  0  0
 18 19  1  0  0  0
 19 20  1  0  0  0
 20 21  1  0  0  0
 21 22  1  0  0  0
 22 23  1  0  0  0
 23 24  1  0  0  0
 24 25  1  0  0  0
 25 26  1  0  0  0
 26 27  2  0  0  0
 27 28  1  0  0  0
 28 17  1  0  0  0
 17  1  1  0  0  0
  1  2  1  0  0  0
  2  3  2  0  0  0
  2  4  1  0  0  0
  4  5  2  0  0  0
  5  6  1  0  0  0
  6  7  2  0  0  0
  7  8  1  0  0  0
  8  9  2  0  0  0
  7 10  1  0  0  0
 10 11  1  0  0  0
 11 14  1  0  0  0
 14 15  1  0  0  0
 14 16  1  0  0  0
 11 12  2  0  0  0
 28 29  2  0  0  0
 29 30  1  0  0  0
 30 31  2  0  0  0
 26 18  1  0  0  0
  9  4  1  0  0  0
 30 18  1  0  0  0
 24 19  2  0  0  0
 10 13  1  0  0  0
M  END
>  <minimizedAffinity>
-7.81314

>  <minimizedRMSD>
1.47140

$$$$
ChemDiv-C679-4899 MCULE-1350317804 MolPort-007-656-008 PubChem-46258430 ZINC000009858766 ZINC09858766


 32 36  0  0  0  0  0  0  0  0999 V2000
   16.5494   -9.3214   17.3326 C   0  0  0  0  0  0  0  0  0  0  0  0
   16.6162   -9.0747   15.9529 C   0  0  0  0  0  0  0  0  0  0  0  0
   17.3338   -9.9279   15.1087 C   0  0  0  0  0  0  0  0  0  0  0  0
   17.9924  -11.0415   15.6534 C   0  0  0  0  0  0  0  0  0  0  0  0
   17.9300  -11.2932   17.0259 C   0  0  0  0  0  0  0  0  0  0  0  0
   17.2104  -10.4349   17.8614 C   0  0  0  0  0  0  0  0  0  0  0  0
   14.6525   -7.6910   17.9110 C   0  0  0  0  0  0  0  0  0  0  0  0
   14.1593   -7.7121   16.7504 O   0  0  0  0  0  0  0  0  0  0  0  0
   15.8209   -8.4653   18.2231 N   0  0  0  0  0  0  0  0  0  0  0  0
   16.1575   -8.4016   19.1460 H   0  0  0  0  0  0  0  0  0  0  0  0
   14.5165   -6.1779   22.9070 Cl  0  0  0  0  0  0  0  0  0  0  0  0
   13.9088   -6.1206   21.2669 C   0  0  0  0  0  0  0  0  0  0  0  0
   12.8286   -5.2927   20.9506 C   0  0  0  0  0  0  0  0  0  0  0  0
   12.3435   -5.2475   19.6408 C   0  0  0  0  0  0  0  0  0  0  0  0
   12.9389   -6.0307   18.6476 C   0  0  0  0  0  0  0  0  0  0  0  0
   14.0241   -6.8646   18.9567 C   0  0  0  0  0  0  0  0  0  0  0  0
   14.5044   -6.9034   20.2738 C   0  0  0  0  0  0  0  0  0  0  0  0
   17.3754   -9.6481   13.7405 O   0  0  0  0  0  0  0  0  0  0  0  0
   18.1622  -10.4014   12.8270 C   0  0  0  0  0  0  0  0  0  0  0  0
   17.8950   -9.9398   11.4394 C   0  0  0  0  0  0  0  0  0  0  0  0
   16.6590  -10.2236   10.8354 C   0  0  0  0  0  0  0  0  0  0  0  0
   16.4216   -9.7567    9.5379 C   0  0  0  0  0  0  0  0  0  0  0  0
   15.3244   -9.9966    8.9675 O   0  0  0  0  0  0  0  0  0  0  0  0
   17.3927   -9.0421    8.9105 N   0  0  0  0  0  0  0  0  0  0  0  0
   17.2920   -8.5388    7.6825 N   0  0  0  0  0  0  0  0  0  0  0  0
   18.4140   -7.8748    7.3080 C   0  0  0  0  0  0  0  0  0  0  0  0
   19.5867   -7.8705    8.5384 S   0  0  0  0  0  0  0  0  0  0  0  0
   18.5682   -8.7771    9.5182 C   0  0  0  0  0  0  0  0  0  0  0  0
   18.8351   -9.2101   10.7745 N   0  0  0  0  0  0  0  0  0  0  0  0
   18.5528   -7.1651    6.0014 C   0  0  0  0  0  0  0  0  0  0  0  0
   20.0041   -7.1818    5.5587 C   0  0  0  0  0  0  0  0  0  0  0  0
   19.0151   -8.1374    4.9317 C   0  0  0  0  0  0  0  0  0  0  0  0
 11 12  1  0  0  0
 12 13  2  0  0  0
 13 14  1  0  0  0
 14 15  2  0  0  0
 15 16  1  0  0  0
 16 17  2  0  0  0
 16  7  1  0  0  0
 17 12  1  0  0  0
  7  8  2  0  0  0
  7  9  1  0  0  0
  9  1  1  0  0  0
  1  2  2  0  0  0
  2  3  1  0  0  0
  3 18  1  0  0  0
  3  4  2  0  0  0
 18 19  1  0  0  0
 19 20  1  0  0  0
 20 21  2  0  0  0
 21 22  1  0  0  0
 22 23  2  0  0  0
 22 24  1  0  0  0
 24 25  1  0  0  0
 25 26  2  0  0  0
 26 27  1  0  0  0
 26 30  1  0  0  0
 27 28  1  0  0  0
 28 29  2  0  0  0
 28 24  1  0  0  0
 29 20  1  0  0  0
 30 31  1  0  0  0
 31 32  1  0  0  0
 32 30  1  0  0  0
  4  5  1  0  0  0
  5  6  2  0  0  0
  6  1  1  0  0  0
  9 10  1  0  0  0
M  END
>  <minimizedAffinity>
-7.78389

>  <minimizedRMSD>
0.86504

$$$$
ChemDiv-G756-0341 MCULE-1010293852 MolPort-010-744-619 PubChem-50802157 ZINC000033268534 ZINC33268534


 28 30  0  0  0  0  0  0  0  0999 V2000
   16.8790   -9.8509   16.6651 C   0  0  0  0  0  0  0  0  0  0  0  0
   17.3995  -11.0907   17.0369 C   0  0  0  0  0  0  0  0  0  0  0  0
   17.9667  -11.9326   16.0800 C   0  0  0  0  0  0  0  0  0  0  0  0
   18.0223  -11.5501   14.7362 C   0  0  0  0  0  0  0  0  0  0  0  0
   18.6460  -12.5133   13.7858 C   0  0  0  0  0  0  0  0  0  0  0  0
   17.4956  -10.2912   14.3429 C   0  0  0  0  0  0  0  0  0  0  0  0
   16.9315   -9.4629   15.3200 C   0  0  0  0  0  0  0  0  0  0  0  0
   15.2937   -8.0118   17.4889 C   0  0  0  0  0  0  0  0  0  0  0  0
   14.8268   -7.7702   16.3419 O   0  0  0  0  0  0  0  0  0  0  0  0
   16.3020   -9.0127   17.6759 N   0  0  0  0  0  0  0  0  0  0  0  0
   16.6334   -9.1382   18.5944 H   0  0  0  0  0  0  0  0  0  0  0  0
   14.8125   -7.2510   18.6887 C   0  0  0  0  0  0  0  0  0  0  0  0
   13.3976   -6.6998   18.5307 C   0  0  0  0  0  0  0  0  0  0  0  0
   12.6450   -8.0329   20.5011 C   0  0  0  0  0  0  0  0  0  0  0  0
   12.3599   -7.6817   19.0532 C   0  0  0  0  0  0  0  0  0  0  0  0
   17.4938   -9.8012   13.0269 O   0  0  0  0  0  0  0  0  0  0  0  0
   18.6337   -9.3407   12.3156 C   0  0  0  0  0  0  0  0  0  0  0  0
   18.3081   -9.2343   10.8692 C   0  0  0  0  0  0  0  0  0  0  0  0
   17.1550   -9.8320   10.3694 C   0  0  0  0  0  0  0  0  0  0  0  0
   16.8581   -9.6910    9.0147 C   0  0  0  0  0  0  0  0  0  0  0  0
   15.8157  -10.2363    8.5584 O   0  0  0  0  0  0  0  0  0  0  0  0
   17.6889   -8.9686    8.2005 N   0  0  0  0  0  0  0  0  0  0  0  0
   17.3960   -8.8300    6.8729 C   0  0  0  0  0  0  0  0  0  0  0  0
   18.2311   -8.0950    6.0294 C   0  0  0  0  0  0  0  0  0  0  0  0
   19.3759   -7.4975    6.5532 C   0  0  0  0  0  0  0  0  0  0  0  0
   19.6743   -7.6390    7.9072 C   0  0  0  0  0  0  0  0  0  0  0  0
   18.8192   -8.3812    8.7252 C   0  0  0  0  0  0  0  0  0  0  0  0
   19.1114   -8.5168   10.0446 N   0  0  0  0  0  0  0  0  0  0  0  0
 14 15  1  0  0  0
 15 13  1  0  0  0
 13 12  1  0  0  0
 12  8  1  0  0  0
  8  9  2  0  0  0
  8 10  1  0  0  0
 10  1  1  0  0  0
  1  2  2  0  0  0
  2  3  1  0  0  0
  3  4  2  0  0  0
  4  5  1  0  0  0
  4  6  1  0  0  0
  6 16  1  0  0  0
  6  7  2  0  0  0
 16 17  1  0  0  0
 17 18  1  0  0  0
 18 19  2  0  0  0
 19 20  1  0  0  0
 20 21  2  0  0  0
 20 22  1  0  0  0
 22 23  1  0  0  0
 23 24  2  0  0  0
 24 25  1  0  0  0
 25 26  2  0  0  0
 26 27  1  0  0  0
 27 28  2  0  0  0
 27 22  1  0  0  0
 28 18  1  0  0  0
  7  1  1  0  0  0
 10 11  1  0  0  0
M  END
>  <minimizedAffinity>
-7.78203

>  <minimizedRMSD>
1.21357

$$$$
ChemDiv-G756-0328 MCULE-3520313575 MolPort-010-744-609 PubChem-50802128 ZINC000033268524 ZINC33268524


 25 27  0  0  0  0  0  0  0  0999 V2000
   17.4826   -9.7817   12.9988 O   0  0  0  0  0  0  0  0  0  0  0  0
   16.8584   -9.9827   16.6304 C   0  0  0  0  0  0  0  0  0  0  0  0
   17.4279  -11.2123   16.9617 C   0  0  0  0  0  0  0  0  0  0  0  0
   18.0308  -11.9971   15.9786 C   0  0  0  0  0  0  0  0  0  0  0  0
   18.0747  -11.5666   14.6489 C   0  0  0  0  0  0  0  0  0  0  0  0
   18.7381  -12.4712   13.6684 C   0  0  0  0  0  0  0  0  0  0  0  0
   17.4990  -10.3168   14.2970 C   0  0  0  0  0  0  0  0  0  0  0  0
   16.8993   -9.5462   15.2998 C   0  0  0  0  0  0  0  0  0  0  0  0
   14.8362   -7.3845   18.6911 C   0  0  0  0  0  0  0  0  0  0  0  0
   15.3802   -8.0750   17.4932 C   0  0  0  0  0  0  0  0  0  0  0  0
   15.0704   -7.6574   16.3463 O   0  0  0  0  0  0  0  0  0  0  0  0
   16.2471   -9.2028   17.6673 N   0  0  0  0  0  0  0  0  0  0  0  0
   16.4432   -9.4699   18.5944 H   0  0  0  0  0  0  0  0  0  0  0  0
   18.6109   -9.2744   12.3008 C   0  0  0  0  0  0  0  0  0  0  0  0
   18.3067   -9.2012   10.8477 C   0  0  0  0  0  0  0  0  0  0  0  0
   17.1829   -9.8448   10.3387 C   0  0  0  0  0  0  0  0  0  0  0  0
   16.9061   -9.7374    8.9766 C   0  0  0  0  0  0  0  0  0  0  0  0
   15.8901  -10.3238    8.5122 O   0  0  0  0  0  0  0  0  0  0  0  0
   17.7285   -9.0035    8.1639 N   0  0  0  0  0  0  0  0  0  0  0  0
   17.4561   -8.8988    6.8288 C   0  0  0  0  0  0  0  0  0  0  0  0
   18.2825   -8.1524    5.9868 C   0  0  0  0  0  0  0  0  0  0  0  0
   19.3971   -7.5079    6.5199 C   0  0  0  0  0  0  0  0  0  0  0  0
   19.6746   -7.6149    7.8815 C   0  0  0  0  0  0  0  0  0  0  0  0
   18.8291   -8.3699    8.6978 C   0  0  0  0  0  0  0  0  0  0  0  0
   19.1015   -8.4726   10.0243 N   0  0  0  0  0  0  0  0  0  0  0  0
  9 10  1  0  0  0
 10 11  2  0  0  0
 10 12  1  0  0  0
 12  2  1  0  0  0
  2  3  2  0  0  0
  3  4  1  0  0  0
  4  5  2  0  0  0
  5  6  1  0  0  0
  5  7  1  0  0  0
  7  1  1  0  0  0
  7  8  2  0  0  0
  1 14  1  0  0  0
 14 15  1  0  0  0
 15 16  2  0  0  0
 16 17  1  0  0  0
 17 18  2  0  0  0
 17 19  1  0  0  0
 19 20  1  0  0  0
 20 21  2  0  0  0
 21 22  1  0  0  0
 22 23  2  0  0  0
 23 24  1  0  0  0
 24 25  2  0  0  0
 24 19  1  0  0  0
 25 15  1  0  0  0
  8  2  1  0  0  0
 12 13  1  0  0  0
M  END
>  <minimizedAffinity>
-7.78093

>  <minimizedRMSD>
0.83672

$$$$
ChemDiv-G756-0339 MCULE-2344022306 MolPort-010-744-617 PubChem-50802154 ZINC000033268532 ZINC33268532


 27 29  0  0  0  0  0  0  0  0999 V2000
   16.8619   -9.7229   16.8913 C   0  0  0  0  0  0  0  0  0  0  0  0
   17.3094  -10.9750   17.3133 C   0  0  0  0  0  0  0  0  0  0  0  0
   17.8193  -11.8886   16.3905 C   0  0  0  0  0  0  0  0  0  0  0  0
   17.8900  -11.5665   15.0317 C   0  0  0  0  0  0  0  0  0  0  0  0
   18.4482  -12.6047   14.1203 C   0  0  0  0  0  0  0  0  0  0  0  0
   17.4375  -10.2957   14.5875 C   0  0  0  0  0  0  0  0  0  0  0  0
   16.9296   -9.3950   15.5309 C   0  0  0  0  0  0  0  0  0  0  0  0
   15.2365   -7.9121   17.6988 C   0  0  0  0  0  0  0  0  0  0  0  0
   14.6188   -7.8349   16.6041 O   0  0  0  0  0  0  0  0  0  0  0  0
   16.3419   -8.8103   17.8675 N   0  0  0  0  0  0  0  0  0  0  0  0
   16.7899   -8.7992   18.7441 H   0  0  0  0  0  0  0  0  0  0  0  0
   14.8173   -7.0393   18.8337 C   0  0  0  0  0  0  0  0  0  0  0  0
   12.7054   -7.8436   19.8941 C   0  0  0  0  0  0  0  0  0  0  0  0
   14.2209   -7.8609   19.9659 C   0  0  0  0  0  0  0  0  0  0  0  0
   17.4586   -9.8615   13.2522 O   0  0  0  0  0  0  0  0  0  0  0  0
   18.6200   -9.7332   12.4443 C   0  0  0  0  0  0  0  0  0  0  0  0
   18.2215   -9.4554   11.0394 C   0  0  0  0  0  0  0  0  0  0  0  0
   17.0101   -9.9364   10.5517 C   0  0  0  0  0  0  0  0  0  0  0  0
   16.6483   -9.6382    9.2388 C   0  0  0  0  0  0  0  0  0  0  0  0
   15.5525  -10.0769    8.7931 O   0  0  0  0  0  0  0  0  0  0  0  0
   17.4746   -8.8792    8.4536 N   0  0  0  0  0  0  0  0  0  0  0  0
   17.1189   -8.5874    7.1669 C   0  0  0  0  0  0  0  0  0  0  0  0
   17.9482   -7.8126    6.3539 C   0  0  0  0  0  0  0  0  0  0  0  0
   19.1521   -7.3332    6.8663 C   0  0  0  0  0  0  0  0  0  0  0  0
   19.5146   -7.6309    8.1785 C   0  0  0  0  0  0  0  0  0  0  0  0
   18.6637   -8.4093    8.9667 C   0  0  0  0  0  0  0  0  0  0  0  0
   19.0190   -8.6980   10.2454 N   0  0  0  0  0  0  0  0  0  0  0  0
 13 14  1  0  0  0
 14 12  1  0  0  0
 12  8  1  0  0  0
  8  9  2  0  0  0
  8 10  1  0  0  0
 10  1  1  0  0  0
  1  2  2  0  0  0
  2  3  1  0  0  0
  3  4  2  0  0  0
  4  5  1  0  0  0
  4  6  1  0  0  0
  6 15  1  0  0  0
  6  7  2  0  0  0
 15 16  1  0  0  0
 16 17  1  0  0  0
 17 18  2  0  0  0
 18 19  1  0  0  0
 19 20  2  0  0  0
 19 21  1  0  0  0
 21 22  1  0  0  0
 22 23  2  0  0  0
 23 24  1  0  0  0
 24 25  2  0  0  0
 25 26  1  0  0  0
 26 27  2  0  0  0
 26 21  1  0  0  0
 27 17  1  0  0  0
  7  1  1  0  0  0
 10 11  1  0  0  0
M  END
>  <minimizedAffinity>
-7.76067

>  <minimizedRMSD>
0.83654

$$$$
ChemDiv-G756-0985 MCULE-5258761911 MolPort-010-744-687 PubChem-50802619 ZINC000033268606 ZINC33268606


 27 29  0  0  0  0  0  0  0  0999 V2000
   17.3875   -9.6979   13.0228 O   0  0  0  0  0  0  0  0  0  0  0  0
   16.9100   -9.8428   16.6892 C   0  0  0  0  0  0  0  0  0  0  0  0
   16.8945   -9.3931   15.3601 C   0  0  0  0  0  0  0  0  0  0  0  0
   17.4219  -10.1819   14.3329 C   0  0  0  0  0  0  0  0  0  0  0  0
   17.9711  -11.4365   14.6409 C   0  0  0  0  0  0  0  0  0  0  0  0
   17.9893  -11.8907   15.9618 C   0  0  0  0  0  0  0  0  0  0  0  0
   17.4599  -11.0953   16.9814 C   0  0  0  0  0  0  0  0  0  0  0  0
   15.3684   -8.0399   17.6632 C   0  0  0  0  0  0  0  0  0  0  0  0
   14.8625   -7.7287   16.5528 O   0  0  0  0  0  0  0  0  0  0  0  0
   16.3754   -9.0567   17.7629 N   0  0  0  0  0  0  0  0  0  0  0  0
   16.7368   -9.2332   18.6615 H   0  0  0  0  0  0  0  0  0  0  0  0
   14.9233   -7.3234   18.8900 C   0  0  0  0  0  0  0  0  0  0  0  0
   12.9806   -6.6655   20.2733 C   0  0  0  0  0  0  0  0  0  0  0  0
   13.4156   -7.4071   19.0272 C   0  0  0  0  0  0  0  0  0  0  0  0
   18.5633   -9.3691   12.2948 C   0  0  0  0  0  0  0  0  0  0  0  0
   18.2443   -9.2828   10.8452 C   0  0  0  0  0  0  0  0  0  0  0  0
   17.0696   -9.8464   10.3564 C   0  0  0  0  0  0  0  0  0  0  0  0
   16.7816   -9.7272    8.9977 C   0  0  0  0  0  0  0  0  0  0  0  0
   15.7190  -10.2411    8.5517 O   0  0  0  0  0  0  0  0  0  0  0  0
   17.6430   -9.0599    8.1684 N   0  0  0  0  0  0  0  0  0  0  0  0
   17.3595   -8.9436    6.8366 C   0  0  0  0  0  0  0  0  0  0  0  0
   18.2252   -8.2636    5.9780 C   0  0  0  0  0  0  0  0  0  0  0  0
   19.3907   -7.6982    6.4912 C   0  0  0  0  0  0  0  0  0  0  0  0
   20.3235   -6.9701    5.5925 C   0  0  0  0  0  0  0  0  0  0  0  0
   19.6798   -7.8168    7.8492 C   0  0  0  0  0  0  0  0  0  0  0  0
   18.7941   -8.5042    8.6825 C   0  0  0  0  0  0  0  0  0  0  0  0
   19.0775   -8.6183   10.0057 N   0  0  0  0  0  0  0  0  0  0  0  0
 13 14  1  0  0  0
 14 12  1  0  0  0
 12  8  1  0  0  0
  8  9  2  0  0  0
  8 10  1  0  0  0
 10  2  1  0  0  0
  2  3  2  0  0  0
  3  4  1  0  0  0
  4  1  1  0  0  0
  4  5  2  0  0  0
  1 15  1  0  0  0
 15 16  1  0  0  0
 16 17  2  0  0  0
 17 18  1  0  0  0
 18 19  2  0  0  0
 18 20  1  0  0  0
 20 21  1  0  0  0
 21 22  2  0  0  0
 22 23  1  0  0  0
 23 24  1  0  0  0
 23 25  2  0  0  0
 25 26  1  0  0  0
 26 27  2  0  0  0
 26 20  1  0  0  0
 27 16  1  0  0  0
  5  6  1  0  0  0
  6  7  2  0  0  0
  7  2  1  0  0  0
 10 11  1  0  0  0
M  END
>  <minimizedAffinity>
-7.75061

>  <minimizedRMSD>
0.80622

$$$$
ChemDiv-C679-5383 MCULE-4419030415 MolPort-010-797-220 PubChem-53043750 ZINC000064775674 ZINC64775674


 32 35  0  0  0  0  0  0  0  0999 V2000
   16.7259   -9.7892   14.2443 C   0  0  0  0  0  0  0  0  0  0  0  0
   17.5123  -10.9431   14.3875 C   0  0  0  0  0  0  0  0  0  0  0  0
   17.9266  -11.3585   15.6553 C   0  0  0  0  0  0  0  0  0  0  0  0
   17.5580  -10.6241   16.7856 C   0  0  0  0  0  0  0  0  0  0  0  0
   16.7708   -9.4749   16.6582 C   0  0  0  0  0  0  0  0  0  0  0  0
   16.3588   -9.0633   15.3819 C   0  0  0  0  0  0  0  0  0  0  0  0
   16.4123   -8.7494   17.8413 N   0  0  0  0  0  0  0  0  0  0  0  0
   15.3562   -7.7881   17.9698 C   0  0  0  0  0  0  0  0  0  0  0  0
   14.6338   -7.4749   16.9866 O   0  0  0  0  0  0  0  0  0  0  0  0
   16.9460   -8.9297   18.6487 H   0  0  0  0  0  0  0  0  0  0  0  0
   15.1091   -7.1395   19.2899 C   0  0  0  0  0  0  0  0  0  0  0  0
   13.9893   -7.7381   19.9371 O   0  0  0  0  0  0  0  0  0  0  0  0
   12.7382   -7.8877   19.3280 C   0  0  0  0  0  0  0  0  0  0  0  0
   12.0399   -9.0878   19.5010 C   0  0  0  0  0  0  0  0  0  0  0  0
   10.7873   -9.2683   18.9059 C   0  0  0  0  0  0  0  0  0  0  0  0
   10.2252   -8.2467   18.1355 C   0  0  0  0  0  0  0  0  0  0  0  0
    9.0112   -8.4211   17.5605 F   0  0  0  0  0  0  0  0  0  0  0  0
   10.9155   -7.0444   17.9594 C   0  0  0  0  0  0  0  0  0  0  0  0
   12.1682   -6.8642   18.5528 C   0  0  0  0  0  0  0  0  0  0  0  0
   16.3041   -9.3403   12.9902 O   0  0  0  0  0  0  0  0  0  0  0  0
   15.9718  -10.2263   11.9295 C   0  0  0  0  0  0  0  0  0  0  0  0
   18.4549   -8.6210    5.9544 C   0  0  0  0  0  0  0  0  0  0  0  0
   18.7002   -8.4078    7.4107 C   0  0  0  0  0  0  0  0  0  0  0  0
   19.7721   -7.6254    7.8505 C   0  0  0  0  0  0  0  0  0  0  0  0
   19.7296   -7.6143    9.5426 S   0  0  0  0  0  0  0  0  0  0  0  0
   18.3733   -8.5877    9.6289 C   0  0  0  0  0  0  0  0  0  0  0  0
   17.7633   -8.9986   10.7676 N   0  0  0  0  0  0  0  0  0  0  0  0
   16.6635   -9.7961   10.6863 C   0  0  0  0  0  0  0  0  0  0  0  0
   16.1616  -10.1794    9.4355 C   0  0  0  0  0  0  0  0  0  0  0  0
   16.8167   -9.7371    8.2799 C   0  0  0  0  0  0  0  0  0  0  0  0
   16.3773  -10.0782    7.1503 O   0  0  0  0  0  0  0  0  0  0  0  0
   17.9237   -8.9421    8.4051 N   0  0  0  0  0  0  0  0  0  0  0  0
 22 23  1  0  0  0
 23 24  2  0  0  0
 24 25  1  0  0  0
 25 26  1  0  0  0
 26 27  2  0  0  0
 27 28  1  0  0  0
 28 21  1  0  0  0
 28 29  2  0  0  0
 21 20  1  0  0  0
 20  1  1  0  0  0
  1  2  2  0  0  0
  2  3  1  0  0  0
  3  4  2  0  0  0
  4  5  1  0  0  0
  5  7  1  0  0  0
  5  6  2  0  0  0
  7  8  1  0  0  0
  8  9  2  0  0  0
  8 11  1  0  0  0
 11 12  1  0  0  0
 12 13  1  0  0  0
 13 14  2  0  0  0
 14 15  1  0  0  0
 15 16  2  0  0  0
 16 17  1  0  0  0
 16 18  1  0  0  0
 18 19  2  0  0  0
 19 13  1  0  0  0
  6  1  1  0  0  0
 29 30  1  0  0  0
 30 31  2  0  0  0
 30 32  1  0  0  0
 32 23  1  0  0  0
 32 26  1  0  0  0
  7 10  1  0  0  0
M  END
>  <minimizedAffinity>
-7.74518

>  <minimizedRMSD>
0.89633

$$$$
ChemDiv-G756-0338 MCULE-6566741896 MolPort-010-744-616 PubChem-50802153 ZINC000033268531 ZINC33268531


 26 28  0  0  0  0  0  0  0  0999 V2000
   16.8334   -9.7918   16.7860 C   0  0  0  0  0  0  0  0  0  0  0  0
   17.3262  -11.0346   17.1844 C   0  0  0  0  0  0  0  0  0  0  0  0
   17.8820  -11.9054   16.2469 C   0  0  0  0  0  0  0  0  0  0  0  0
   17.9550  -11.5489   14.8968 C   0  0  0  0  0  0  0  0  0  0  0  0
   18.5637  -12.5426   13.9684 C   0  0  0  0  0  0  0  0  0  0  0  0
   17.4579  -10.2864   14.4768 C   0  0  0  0  0  0  0  0  0  0  0  0
   16.9044   -9.4289   15.4348 C   0  0  0  0  0  0  0  0  0  0  0  0
   15.2313   -7.9533   17.5786 C   0  0  0  0  0  0  0  0  0  0  0  0
   14.6889   -7.7995   16.4525 O   0  0  0  0  0  0  0  0  0  0  0  0
   16.2703   -8.9222   17.7775 N   0  0  0  0  0  0  0  0  0  0  0  0
   16.6345   -8.9979   18.6891 H   0  0  0  0  0  0  0  0  0  0  0  0
   14.9363   -7.8887   20.0252 C   0  0  0  0  0  0  0  0  0  0  0  0
   14.7687   -7.1248   18.7260 C   0  0  0  0  0  0  0  0  0  0  0  0
   17.4773   -9.8201   13.1525 O   0  0  0  0  0  0  0  0  0  0  0  0
   18.6441   -9.5171   12.4011 C   0  0  0  0  0  0  0  0  0  0  0  0
   18.2834   -9.3402   10.9700 C   0  0  0  0  0  0  0  0  0  0  0  0
   17.1044   -9.8903   10.4763 C   0  0  0  0  0  0  0  0  0  0  0  0
   16.7768   -9.6862    9.1367 C   0  0  0  0  0  0  0  0  0  0  0  0
   15.7105  -10.1878    8.6860 O   0  0  0  0  0  0  0  0  0  0  0  0
   17.6043   -8.9502    8.3312 N   0  0  0  0  0  0  0  0  0  0  0  0
   17.2822   -8.7506    7.0182 C   0  0  0  0  0  0  0  0  0  0  0  0
   18.1131   -8.0004    6.1841 C   0  0  0  0  0  0  0  0  0  0  0  0
   19.2838   -7.4504    6.7022 C   0  0  0  0  0  0  0  0  0  0  0  0
   19.6121   -7.6541    8.0412 C   0  0  0  0  0  0  0  0  0  0  0  0
   18.7606   -8.4102    8.8502 C   0  0  0  0  0  0  0  0  0  0  0  0
   19.0825   -8.6072   10.1548 N   0  0  0  0  0  0  0  0  0  0  0  0
 12 13  1  0  0  0
 13  8  1  0  0  0
  8  9  2  0  0  0
  8 10  1  0  0  0
 10  1  1  0  0  0
  1  2  2  0  0  0
  2  3  1  0  0  0
  3  4  2  0  0  0
  4  5  1  0  0  0
  4  6  1  0  0  0
  6 14  1  0  0  0
  6  7  2  0  0  0
 14 15  1  0  0  0
 15 16  1  0  0  0
 16 17  2  0  0  0
 17 18  1  0  0  0
 18 19  2  0  0  0
 18 20  1  0  0  0
 20 21  1  0  0  0
 21 22  2  0  0  0
 22 23  1  0  0  0
 23 24  2  0  0  0
 24 25  1  0  0  0
 25 26  2  0  0  0
 25 20  1  0  0  0
 26 16  1  0  0  0
  7  1  1  0  0  0
 10 11  1  0  0  0
M  END
>  <minimizedAffinity>
-7.74015

>  <minimizedRMSD>
0.84114

$$$$
ChemDiv-G795-0344 MCULE-1901578914 MolPort-010-745-014 PubChem-53030365 ZINC000035447623


 31 34  0  0  0  0  0  0  0  0999 V2000
   17.2783   -9.9291   13.7373 C   0  0  0  0  0  0  0  0  0  0  0  0
   17.9532  -10.9649   14.4206 C   0  0  0  0  0  0  0  0  0  0  0  0
   18.9116  -11.8760   13.7325 C   0  0  0  0  0  0  0  0  0  0  0  0
   17.7854  -11.1078   15.8009 C   0  0  0  0  0  0  0  0  0  0  0  0
   16.9659  -10.2265   16.5087 C   0  0  0  0  0  0  0  0  0  0  0  0
   16.3143   -9.1797   15.8459 C   0  0  0  0  0  0  0  0  0  0  0  0
   16.4836   -9.0351   14.4625 C   0  0  0  0  0  0  0  0  0  0  0  0
   16.3688   -9.8401   11.3641 C   0  0  0  0  0  0  0  0  0  0  0  0
   15.1695   -9.9069   11.7478 O   0  0  0  0  0  0  0  0  0  0  0  0
   17.4222   -9.7166   12.3272 N   0  0  0  0  0  0  0  0  0  0  0  0
   18.3143   -9.4662   11.9945 H   0  0  0  0  0  0  0  0  0  0  0  0
   16.6648   -9.8445    9.9177 C   0  0  0  0  0  0  0  0  0  0  0  0
   17.6455   -9.0331    9.2882 C   0  0  0  0  0  0  0  0  0  0  0  0
   18.4979   -8.1002    9.8897 C   0  0  0  0  0  0  0  0  0  0  0  0
   19.4081   -7.3927    9.0857 C   0  0  0  0  0  0  0  0  0  0  0  0
   19.4626   -7.6189    7.6965 C   0  0  0  0  0  0  0  0  0  0  0  0
   18.6083   -8.5551    7.0944 C   0  0  0  0  0  0  0  0  0  0  0  0
   17.7202   -9.2369    7.9195 C   0  0  0  0  0  0  0  0  0  0  0  0
   16.5901  -10.3935    7.5483 S   0  0  0  0  0  0  0  0  0  0  0  0
   15.9800  -10.6705    9.0752 N   0  0  0  0  0  0  0  0  0  0  0  0
   15.4631   -8.2393   16.5951 C   0  0  0  0  0  0  0  0  0  0  0  0
   15.2850   -7.0677   16.1623 O   0  0  0  0  0  0  0  0  0  0  0  0
   14.8344   -8.6557   17.8120 N   0  0  0  0  0  0  0  0  0  0  0  0
   14.9542   -9.5867   18.1089 H   0  0  0  0  0  0  0  0  0  0  0  0
   14.0254   -7.7627   18.6301 C   0  0  0  0  0  0  0  0  0  0  0  0
   14.7039   -7.4943   19.9300 C   0  0  0  0  0  0  0  0  0  0  0  0
   15.9888   -6.9448   19.9456 C   0  0  0  0  0  0  0  0  0  0  0  0
   16.6158   -6.7115   21.1709 C   0  0  0  0  0  0  0  0  0  0  0  0
   15.9576   -7.0289   22.3605 C   0  0  0  0  0  0  0  0  0  0  0  0
   14.6749   -7.5787   22.3040 C   0  0  0  0  0  0  0  0  0  0  0  0
   14.0797   -7.7992   21.1007 N   0  0  0  0  0  0  0  0  0  0  0  0
 12 13  1  0  0  0
 13 14  2  0  0  0
 14 15  1  0  0  0
 15 16  2  0  0  0
 16 17  1  0  0  0
 17 18  2  0  0  0
 18 19  1  0  0  0
 19 20  1  0  0  0
 12  8  1  0  0  0
  8  9  2  0  0  0
  8 10  1  0  0  0
 10  1  1  0  0  0
  1  2  2  0  0  0
  2  3  1  0  0  0
  2  4  1  0  0  0
  4  5  2  0  0  0
  5  6  1  0  0  0
  6  7  2  0  0  0
  6 21  1  0  0  0
 21 22  2  0  0  0
 21 23  1  0  0  0
 23 25  1  0  0  0
 25 26  1  0  0  0
 26 27  2  0  0  0
 27 28  1  0  0  0
 28 29  2  0  0  0
 29 30  1  0  0  0
 30 31  2  0  0  0
 20 12  2  0  0  0
  7  1  1  0  0  0
 31 26  1  0  0  0
 18 13  1  0  0  0
 10 11  1  0  0  0
 23 24  1  0  0  0
M  END
>  <minimizedAffinity>
-7.73708

>  <minimizedRMSD>
1.74579

$$$$
ChemDiv-C679-4528 MCULE-5742533090 MolPort-007-655-911 PubChem-20874279 ZINC000013368176 ZINC13368176


 27 29  0  0  0  0  0  0  0  0999 V2000
   19.1420   -7.6633    6.9675 C   0  0  0  0  0  0  0  0  0  0  0  0
   18.1905   -8.6253    6.8839 N   0  0  0  0  0  0  0  0  0  0  0  0
   17.7476   -8.9942    8.0833 N   0  0  0  0  0  0  0  0  0  0  0  0
   18.3345   -8.3430    9.1095 C   0  0  0  0  0  0  0  0  0  0  0  0
   19.4760   -7.2331    8.5744 S   0  0  0  0  0  0  0  0  0  0  0  0
   18.0003   -8.5956   10.3986 N   0  0  0  0  0  0  0  0  0  0  0  0
   17.0512   -9.5365   10.6667 C   0  0  0  0  0  0  0  0  0  0  0  0
   16.4172  -10.2240    9.6186 C   0  0  0  0  0  0  0  0  0  0  0  0
   16.7904   -9.9343    8.3015 C   0  0  0  0  0  0  0  0  0  0  0  0
   16.2438  -10.5361    7.3395 O   0  0  0  0  0  0  0  0  0  0  0  0
   19.8207   -7.0694    5.7797 C   0  0  0  0  0  0  0  0  0  0  0  0
   21.2810   -7.7864    3.9154 C   0  0  0  0  0  0  0  0  0  0  0  0
   20.0205   -8.1095    4.6891 C   0  0  0  0  0  0  0  0  0  0  0  0
   18.8392   -8.1081    3.7368 C   0  0  0  0  0  0  0  0  0  0  0  0
   16.6528   -9.8051   12.0736 C   0  0  0  0  0  0  0  0  0  0  0  0
   17.8153   -9.9824   12.8724 O   0  0  0  0  0  0  0  0  0  0  0  0
   17.7639  -10.4640   14.1829 C   0  0  0  0  0  0  0  0  0  0  0  0
   18.3311  -11.6981   14.5374 C   0  0  0  0  0  0  0  0  0  0  0  0
   18.2621  -12.1503   15.8572 C   0  0  0  0  0  0  0  0  0  0  0  0
   17.6268  -11.3732   16.8295 C   0  0  0  0  0  0  0  0  0  0  0  0
   17.0572  -10.1415   16.4907 C   0  0  0  0  0  0  0  0  0  0  0  0
   17.1303   -9.6934   15.1629 C   0  0  0  0  0  0  0  0  0  0  0  0
   16.4141   -9.3732   17.5169 N   0  0  0  0  0  0  0  0  0  0  0  0
   15.5945   -8.2122   17.3317 C   0  0  0  0  0  0  0  0  0  0  0  0
   15.0067   -7.5405   18.5196 C   0  0  0  0  0  0  0  0  0  0  0  0
   15.3626   -7.7500   16.1836 O   0  0  0  0  0  0  0  0  0  0  0  0
   16.5496   -9.6744   18.4443 H   0  0  0  0  0  0  0  0  0  0  0  0
 12 13  1  0  0  0
 13 14  1  0  0  0
 13 11  1  0  0  0
 11  1  1  0  0  0
  1  2  2  0  0  0
  2  3  1  0  0  0
  3  4  1  0  0  0
  4  5  1  0  0  0
  4  6  2  0  0  0
  5  1  1  0  0  0
  6  7  1  0  0  0
  7 15  1  0  0  0
  7  8  2  0  0  0
 15 16  1  0  0  0
 16 17  1  0  0  0
 17 18  2  0  0  0
 18 19  1  0  0  0
 19 20  2  0  0  0
 20 21  1  0  0  0
 21 23  1  0  0  0
 21 22  2  0  0  0
 23 24  1  0  0  0
 24 25  1  0  0  0
 24 26  2  0  0  0
 22 17  1  0  0  0
  8  9  1  0  0  0
  9 10  2  0  0  0
  9  3  1  0  0  0
 23 27  1  0  0  0
M  END
>  <minimizedAffinity>
-7.72790

>  <minimizedRMSD>
1.64525

$$$$
ChemDiv-C679-4192 MCULE-8718808424 MolPort-007-655-803 PubChem-20874221 ZINC000013367989


 31 34  0  0  0  0  0  0  0  0999 V2000
   17.7206  -10.2781   14.4461 C   0  0  0  0  0  0  0  0  0  0  0  0
   18.1519  -11.5199   14.9386 C   0  0  0  0  0  0  0  0  0  0  0  0
   17.9955  -11.8325   16.2909 C   0  0  0  0  0  0  0  0  0  0  0  0
   17.4080  -10.9076   17.1582 C   0  0  0  0  0  0  0  0  0  0  0  0
   16.9736   -9.6666   16.6814 C   0  0  0  0  0  0  0  0  0  0  0  0
   17.1338   -9.3591   15.3218 C   0  0  0  0  0  0  0  0  0  0  0  0
   16.3764   -8.7446   17.6028 N   0  0  0  0  0  0  0  0  0  0  0  0
   15.1550   -8.0136   17.4168 C   0  0  0  0  0  0  0  0  0  0  0  0
   14.4741   -8.1404   16.3650 O   0  0  0  0  0  0  0  0  0  0  0  0
   16.8536   -8.5974   18.4512 H   0  0  0  0  0  0  0  0  0  0  0  0
   14.6762   -7.0844   18.4817 C   0  0  0  0  0  0  0  0  0  0  0  0
   13.1437   -7.1181   18.5705 C   0  0  0  0  0  0  0  0  0  0  0  0
   12.6670   -6.6259   19.9334 C   0  0  0  0  0  0  0  0  0  0  0  0
   13.1879   -7.5188   21.0687 C   0  0  0  0  0  0  0  0  0  0  0  0
   14.5115   -8.2232   20.7416 C   0  0  0  0  0  0  0  0  0  0  0  0
   15.3811   -7.3731   19.8176 C   0  0  0  0  0  0  0  0  0  0  0  0
   17.8622   -9.9336   13.0996 O   0  0  0  0  0  0  0  0  0  0  0  0
   16.8669   -9.2157   12.3821 C   0  0  0  0  0  0  0  0  0  0  0  0
   17.6509   -9.3643    8.2418 N   0  0  0  0  0  0  0  0  0  0  0  0
   16.6775  -10.1751    8.7341 C   0  0  0  0  0  0  0  0  0  0  0  0
   16.0262  -10.9392    7.9734 O   0  0  0  0  0  0  0  0  0  0  0  0
   16.4061  -10.1471   10.1065 C   0  0  0  0  0  0  0  0  0  0  0  0
   17.1550   -9.2858   10.9253 C   0  0  0  0  0  0  0  0  0  0  0  0
   18.1161   -8.4842   10.3848 N   0  0  0  0  0  0  0  0  0  0  0  0
   18.3497   -8.5404    9.0509 C   0  0  0  0  0  0  0  0  0  0  0  0
   19.4854   -7.6437    8.1987 S   0  0  0  0  0  0  0  0  0  0  0  0
   19.0018   -8.3957    6.7564 C   0  0  0  0  0  0  0  0  0  0  0  0
   18.0047   -9.2932    6.9610 N   0  0  0  0  0  0  0  0  0  0  0  0
   19.6005   -8.1056    5.4209 C   0  0  0  0  0  0  0  0  0  0  0  0
   18.5693   -8.2993    4.3266 C   0  0  0  0  0  0  0  0  0  0  0  0
   20.1355   -6.6877    5.3786 C   0  0  0  0  0  0  0  0  0  0  0  0
 19 20  1  0  0  0
 20 21  2  0  0  0
 20 22  1  0  0  0
 22 23  2  0  0  0
 23 24  1  0  0  0
 24 25  2  0  0  0
 25 26  1  0  0  0
 26 27  1  0  0  0
 27 29  1  0  0  0
 29 30  1  0  0  0
 29 31  1  0  0  0
 27 28  2  0  0  0
 23 18  1  0  0  0
 18 17  1  0  0  0
 17  1  1  0  0  0
  1  2  2  0  0  0
  2  3  1  0  0  0
  3  4  2  0  0  0
  4  5  1  0  0  0
  5  6  2  0  0  0
  5  7  1  0  0  0
  7  8  1  0  0  0
  8 11  1  0  0  0
 11 12  1  0  0  0
 12 13  1  0  0  0
 13 14  1  0  0  0
 14 15  1  0  0  0
 15 16  1  0  0  0
  8  9  2  0  0  0
 25 19  1  0  0  0
  6  1  1  0  0  0
 16 11  1  0  0  0
 28 19  1  0  0  0
  7 10  1  0  0  0
M  END
>  <minimizedAffinity>
-7.71973

>  <minimizedRMSD>
1.06283

$$$$
ChemDiv-C679-4219 MCULE-1764927874 MolPort-007-655-826 PubChem-46258336 ZINC000009858722


 32 35  0  0  0  0  0  0  0  0999 V2000
   16.7504   -9.3401   14.9518 C   0  0  0  0  0  0  0  0  0  0  0  0
   17.3782  -10.3472   15.7014 C   0  0  0  0  0  0  0  0  0  0  0  0
   17.2370  -10.3809   17.0907 C   0  0  0  0  0  0  0  0  0  0  0  0
   16.4687   -9.4099   17.7384 C   0  0  0  0  0  0  0  0  0  0  0  0
   15.8374   -8.4005   17.0043 C   0  0  0  0  0  0  0  0  0  0  0  0
   15.9835   -8.3729   15.6090 C   0  0  0  0  0  0  0  0  0  0  0  0
   15.0578   -7.4225   17.7059 N   0  0  0  0  0  0  0  0  0  0  0  0
   13.7023   -7.5638   18.1585 C   0  0  0  0  0  0  0  0  0  0  0  0
   13.0650   -8.6327   17.9533 O   0  0  0  0  0  0  0  0  0  0  0  0
   15.4986   -6.5633   17.8977 H   0  0  0  0  0  0  0  0  0  0  0  0
   13.0501   -6.4496   18.8688 C   0  0  0  0  0  0  0  0  0  0  0  0
   12.0860   -5.6615   18.2224 C   0  0  0  0  0  0  0  0  0  0  0  0
   11.4681   -4.6047   18.8975 C   0  0  0  0  0  0  0  0  0  0  0  0
   11.8096   -4.3281   20.2239 C   0  0  0  0  0  0  0  0  0  0  0  0
   12.7688   -5.1081   20.8752 C   0  0  0  0  0  0  0  0  0  0  0  0
   13.1970   -4.7624   22.5364 Cl  0  0  0  0  0  0  0  0  0  0  0  0
   13.3866   -6.1648   20.2002 C   0  0  0  0  0  0  0  0  0  0  0  0
   16.8709   -9.2774   13.5613 O   0  0  0  0  0  0  0  0  0  0  0  0
   17.7617  -10.1092   12.8297 C   0  0  0  0  0  0  0  0  0  0  0  0
   17.5322   -9.0894    8.7447 N   0  0  0  0  0  0  0  0  0  0  0  0
   16.5044   -9.7982    9.2821 C   0  0  0  0  0  0  0  0  0  0  0  0
   15.5121  -10.1310    8.5811 O   0  0  0  0  0  0  0  0  0  0  0  0
   16.5637  -10.1535   10.6341 C   0  0  0  0  0  0  0  0  0  0  0  0
   17.6873   -9.7692   11.3845 C   0  0  0  0  0  0  0  0  0  0  0  0
   18.6902   -9.0513   10.8041 N   0  0  0  0  0  0  0  0  0  0  0  0
   18.5962   -8.7265    9.4916 C   0  0  0  0  0  0  0  0  0  0  0  0
   19.7198   -7.8570    8.5970 S   0  0  0  0  0  0  0  0  0  0  0  0
   18.7328   -7.9964    7.2169 C   0  0  0  0  0  0  0  0  0  0  0  0
   17.5972   -8.6885    7.4772 N   0  0  0  0  0  0  0  0  0  0  0  0
   19.0464   -7.4365    5.8689 C   0  0  0  0  0  0  0  0  0  0  0  0
   20.5316   -7.1606    5.7381 C   0  0  0  0  0  0  0  0  0  0  0  0
   18.5989   -8.3896    4.7778 C   0  0  0  0  0  0  0  0  0  0  0  0
 20 21  1  0  0  0
 21 22  2  0  0  0
 21 23  1  0  0  0
 23 24  2  0  0  0
 24 25  1  0  0  0
 25 26  2  0  0  0
 26 27  1  0  0  0
 27 28  1  0  0  0
 28 30  1  0  0  0
 30 31  1  0  0  0
 30 32  1  0  0  0
 28 29  2  0  0  0
 24 19  1  0  0  0
 19 18  1  0  0  0
 18  1  1  0  0  0
  1  2  2  0  0  0
  2  3  1  0  0  0
  3  4  2  0  0  0
  4  5  1  0  0  0
  5  6  2  0  0  0
  5  7  1  0  0  0
  7  8  1  0  0  0
  8  9  2  0  0  0
  8 11  1  0  0  0
 11 12  2  0  0  0
 12 13  1  0  0  0
 13 14  2  0  0  0
 14 15  1  0  0  0
 15 16  1  0  0  0
 15 17  2  0  0  0
 26 20  1  0  0  0
  6  1  1  0  0  0
 17 11  1  0  0  0
 29 20  1  0  0  0
  7 10  1  0  0  0
M  END
>  <minimizedAffinity>
-7.71392

>  <minimizedRMSD>
1.55489

$$$$
ChemDiv-G357-2013 MCULE-2370868284 MolPort-007-847-737 PubChem-46343522 ZINC000021633270


 31 34  0  0  0  0  0  0  0  0999 V2000
   16.9527  -10.2790   15.5169 C   0  0  0  0  0  0  0  0  0  0  0  0
   17.1949  -10.3365   16.8964 C   0  0  0  0  0  0  0  0  0  0  0  0
   16.6385   -9.3805   17.7511 C   0  0  0  0  0  0  0  0  0  0  0  0
   15.8347   -8.3563   17.2406 C   0  0  0  0  0  0  0  0  0  0  0  0
   15.5928   -8.2982   15.8600 C   0  0  0  0  0  0  0  0  0  0  0  0
   16.1482   -9.2532   15.0044 C   0  0  0  0  0  0  0  0  0  0  0  0
   15.2812   -7.3952   18.1496 N   0  0  0  0  0  0  0  0  0  0  0  0
   13.9098   -7.2854   18.5515 C   0  0  0  0  0  0  0  0  0  0  0  0
   13.0329   -8.0716   18.0998 O   0  0  0  0  0  0  0  0  0  0  0  0
   15.9082   -6.7430   18.5379 H   0  0  0  0  0  0  0  0  0  0  0  0
   13.5238   -6.2133   19.5161 C   0  0  0  0  0  0  0  0  0  0  0  0
   13.0099   -6.8284   20.8263 C   0  0  0  0  0  0  0  0  0  0  0  0
   12.1370   -5.8355   21.5874 C   0  0  0  0  0  0  0  0  0  0  0  0
   10.8938   -5.4429   20.7763 C   0  0  0  0  0  0  0  0  0  0  0  0
   11.0967   -5.5269   19.2571 C   0  0  0  0  0  0  0  0  0  0  0  0
   12.5420   -5.2216   18.8697 C   0  0  0  0  0  0  0  0  0  0  0  0
   17.5340  -11.2831   14.6114 C   0  0  0  0  0  0  0  0  0  0  0  0
   17.9108  -12.3998   15.0634 O   0  0  0  0  0  0  0  0  0  0  0  0
   17.6649  -10.9938   13.2513 O   0  0  0  0  0  0  0  0  0  0  0  0
   18.2696   -9.7935   12.7928 C   0  0  0  0  0  0  0  0  0  0  0  0
   17.4059   -9.2024    8.7052 N   0  0  0  0  0  0  0  0  0  0  0  0
   17.2950   -8.9133    7.3811 C   0  0  0  0  0  0  0  0  0  0  0  0
   18.3984   -8.2217    6.8860 C   0  0  0  0  0  0  0  0  0  0  0  0
   19.5275   -7.9672    8.1204 S   0  0  0  0  0  0  0  0  0  0  0  0
   18.5617   -8.7541    9.2445 C   0  0  0  0  0  0  0  0  0  0  0  0
   18.8567   -8.9420   10.5542 N   0  0  0  0  0  0  0  0  0  0  0  0
   17.9714   -9.6067   11.3484 C   0  0  0  0  0  0  0  0  0  0  0  0
   16.7593  -10.0769   10.8192 C   0  0  0  0  0  0  0  0  0  0  0  0
   16.4888   -9.8634    9.4633 C   0  0  0  0  0  0  0  0  0  0  0  0
   15.4098  -10.2786    8.9616 O   0  0  0  0  0  0  0  0  0  0  0  0
   18.5616   -7.7724    5.4791 C   0  0  0  0  0  0  0  0  0  0  0  0
 21 22  1  0  0  0
 22 23  2  0  0  0
 23 24  1  0  0  0
 24 25  1  0  0  0
 25 26  2  0  0  0
 26 27  1  0  0  0
 27 20  1  0  0  0
 20 19  1  0  0  0
 19 17  1  0  0  0
 17 18  2  0  0  0
 17  1  1  0  0  0
  1  2  2  0  0  0
  2  3  1  0  0  0
  3  4  2  0  0  0
  4  5  1  0  0  0
  5  6  2  0  0  0
  4  7  1  0  0  0
  7  8  1  0  0  0
  8 11  1  0  0  0
 11 12  1  0  0  0
 12 13  1  0  0  0
 13 14  1  0  0  0
 14 15  1  0  0  0
 15 16  1  0  0  0
  8  9  2  0  0  0
 27 28  2  0  0  0
 28 29  1  0  0  0
 29 30  2  0  0  0
 23 31  1  0  0  0
 25 21  1  0  0  0
  6  1  1  0  0  0
 16 11  1  0  0  0
 29 21  1  0  0  0
  7 10  1  0  0  0
M  END
>  <minimizedAffinity>
-7.71317

>  <minimizedRMSD>
1.73648

$$$$
ChemDiv-G355-3287 MCULE-9658673262 MolPort-010-743-038 PubChem-50793979 ZINC000035428435 ZINC35428435


 32 35  0  0  0  0  0  0  0  0999 V2000
   16.2453   -8.9525   17.0981 C   0  0  0  0  0  0  0  0  0  0  0  0
   16.7782  -10.0906   17.7036 C   0  0  0  0  0  0  0  0  0  0  0  0
   17.4256  -11.0591   16.9360 C   0  0  0  0  0  0  0  0  0  0  0  0
   17.5507  -10.9067   15.5518 C   0  0  0  0  0  0  0  0  0  0  0  0
   18.2589  -11.9906   14.8147 C   0  0  0  0  0  0  0  0  0  0  0  0
   17.0121   -9.7535   14.9217 C   0  0  0  0  0  0  0  0  0  0  0  0
   16.3672   -8.7947   15.7115 C   0  0  0  0  0  0  0  0  0  0  0  0
   14.1702   -7.7894   18.0680 C   0  0  0  0  0  0  0  0  0  0  0  0
   13.3644   -8.5172   17.4256 O   0  0  0  0  0  0  0  0  0  0  0  0
   15.5856   -7.9793   17.9193 N   0  0  0  0  0  0  0  0  0  0  0  0
   16.1661   -7.3760   18.4372 H   0  0  0  0  0  0  0  0  0  0  0  0
   14.1395   -6.5158   20.2760 C   0  0  0  0  0  0  0  0  0  0  0  0
   13.6363   -6.7377   18.9700 C   0  0  0  0  0  0  0  0  0  0  0  0
   12.5856   -5.9315   18.5014 C   0  0  0  0  0  0  0  0  0  0  0  0
   12.0397   -4.9247   19.2985 C   0  0  0  0  0  0  0  0  0  0  0  0
   12.5370   -4.7071   20.5815 C   0  0  0  0  0  0  0  0  0  0  0  0
   13.5791   -5.4971   21.0665 C   0  0  0  0  0  0  0  0  0  0  0  0
   16.1716   -6.8003   21.6690 C   0  0  0  0  0  0  0  0  0  0  0  0
   15.1834   -7.3020   20.7791 O   0  0  0  0  0  0  0  0  0  0  0  0
   17.0752   -9.4925   13.5434 O   0  0  0  0  0  0  0  0  0  0  0  0
   18.2198   -9.6699   12.7212 C   0  0  0  0  0  0  0  0  0  0  0  0
   17.8234   -9.5873   11.2911 C   0  0  0  0  0  0  0  0  0  0  0  0
   16.5553  -10.0559   10.8900 C   0  0  0  0  0  0  0  0  0  0  0  0
   16.1950   -9.9413    9.5417 C   0  0  0  0  0  0  0  0  0  0  0  0
   15.0756  -10.3479    9.1338 O   0  0  0  0  0  0  0  0  0  0  0  0
   17.0863   -9.3785    8.6912 N   0  0  0  0  0  0  0  0  0  0  0  0
   16.9693   -9.1689    7.4200 O   0  0  0  0  0  0  0  0  0  0  0  0
   18.0719   -8.5925    6.9833 C   0  0  0  0  0  0  0  0  0  0  0  0
   18.2982   -8.2020    5.5671 C   0  0  0  0  0  0  0  0  0  0  0  0
   18.9862   -8.4021    8.0252 C   0  0  0  0  0  0  0  0  0  0  0  0
   18.2812   -8.9325    9.0886 C   0  0  0  0  0  0  0  0  0  0  0  0
   18.6736   -9.0211   10.3830 N   0  0  0  0  0  0  0  0  0  0  0  0
 18 19  1  0  0  0
 19 12  1  0  0  0
 12 13  2  0  0  0
 13 14  1  0  0  0
 13  8  1  0  0  0
 14 15  2  0  0  0
 15 16  1  0  0  0
 16 17  2  0  0  0
 17 12  1  0  0  0
  8  9  2  0  0  0
  8 10  1  0  0  0
 10  1  1  0  0  0
  1  2  2  0  0  0
  2  3  1  0  0  0
  3  4  2  0  0  0
  4  5  1  0  0  0
  4  6  1  0  0  0
  6 20  1  0  0  0
  6  7  2  0  0  0
 20 21  1  0  0  0
 21 22  1  0  0  0
 22 23  2  0  0  0
 23 24  1  0  0  0
 24 25  2  0  0  0
 24 26  1  0  0  0
 26 27  1  0  0  0
 27 28  1  0  0  0
 28 29  1  0  0  0
 28 30  2  0  0  0
 30 31  1  0  0  0
 31 32  2  0  0  0
 31 26  1  0  0  0
 32 22  1  0  0  0
  7  1  1  0  0  0
 10 11  1  0  0  0
M  END
>  <minimizedAffinity>
-7.70700

>  <minimizedRMSD>
1.26106

$$$$
ChemDiv-C679-4179 MCULE-2781708355 MolPort-007-655-791 PubChem-46258323 ZINC000013367960


 32 35  0  0  0  0  0  0  0  0999 V2000
   16.7472   -9.3169   15.0391 C   0  0  0  0  0  0  0  0  0  0  0  0
   17.3903  -10.3164   15.7862 C   0  0  0  0  0  0  0  0  0  0  0  0
   17.2491  -10.3562   17.1753 C   0  0  0  0  0  0  0  0  0  0  0  0
   16.4656   -9.3990   17.8254 C   0  0  0  0  0  0  0  0  0  0  0  0
   15.8190   -8.3974   17.0939 C   0  0  0  0  0  0  0  0  0  0  0  0
   15.9654   -8.3635   15.6987 C   0  0  0  0  0  0  0  0  0  0  0  0
   15.0244   -7.4333   17.7979 N   0  0  0  0  0  0  0  0  0  0  0  0
   13.6507   -7.5719   18.1927 C   0  0  0  0  0  0  0  0  0  0  0  0
   13.0099   -8.6257   17.9287 O   0  0  0  0  0  0  0  0  0  0  0  0
   15.4675   -6.5869   18.0358 H   0  0  0  0  0  0  0  0  0  0  0  0
   12.9837   -6.4728   18.9130 C   0  0  0  0  0  0  0  0  0  0  0  0
   11.9922   -5.7074   18.2807 C   0  0  0  0  0  0  0  0  0  0  0  0
   11.3602   -4.6648   18.9648 C   0  0  0  0  0  0  0  0  0  0  0  0
   11.7148   -4.3800   20.2860 C   0  0  0  0  0  0  0  0  0  0  0  0
   12.7011   -5.1372   20.9235 C   0  0  0  0  0  0  0  0  0  0  0  0
   13.3332   -6.1797   20.2394 C   0  0  0  0  0  0  0  0  0  0  0  0
   11.1024   -3.3699   20.9489 F   0  0  0  0  0  0  0  0  0  0  0  0
   16.8673   -9.2485   13.6489 O   0  0  0  0  0  0  0  0  0  0  0  0
   17.7132  -10.1178   12.9075 C   0  0  0  0  0  0  0  0  0  0  0  0
   17.4725   -9.0937    8.8243 N   0  0  0  0  0  0  0  0  0  0  0  0
   16.4419   -9.7951    9.3659 C   0  0  0  0  0  0  0  0  0  0  0  0
   15.4438  -10.1197    8.6694 O   0  0  0  0  0  0  0  0  0  0  0  0
   16.5049  -10.1519   10.7174 C   0  0  0  0  0  0  0  0  0  0  0  0
   17.6348   -9.7766   11.4627 C   0  0  0  0  0  0  0  0  0  0  0  0
   18.6404   -9.0658   10.8782 N   0  0  0  0  0  0  0  0  0  0  0  0
   18.5427   -8.7394    9.5663 C   0  0  0  0  0  0  0  0  0  0  0  0
   19.6686   -7.8777    8.6671 S   0  0  0  0  0  0  0  0  0  0  0  0
   18.6740   -8.0084    7.2917 C   0  0  0  0  0  0  0  0  0  0  0  0
   17.5344   -8.6922    7.5568 N   0  0  0  0  0  0  0  0  0  0  0  0
   18.9855   -7.4502    5.9426 C   0  0  0  0  0  0  0  0  0  0  0  0
   20.4704   -7.1736    5.8094 C   0  0  0  0  0  0  0  0  0  0  0  0
   18.5373   -8.4051    4.8535 C   0  0  0  0  0  0  0  0  0  0  0  0
 20 21  1  0  0  0
 21 22  2  0  0  0
 21 23  1  0  0  0
 23 24  2  0  0  0
 24 25  1  0  0  0
 25 26  2  0  0  0
 26 27  1  0  0  0
 27 28  1  0  0  0
 28 30  1  0  0  0
 30 31  1  0  0  0
 30 32  1  0  0  0
 28 29  2  0  0  0
 24 19  1  0  0  0
 19 18  1  0  0  0
 18  1  1  0  0  0
  1  2  2  0  0  0
  2  3  1  0  0  0
  3  4  2  0  0  0
  4  5  1  0  0  0
  5  6  2  0  0  0
  5  7  1  0  0  0
  7  8  1  0  0  0
  8  9  2  0  0  0
  8 11  1  0  0  0
 11 12  2  0  0  0
 12 13  1  0  0  0
 13 14  2  0  0  0
 14 15  1  0  0  0
 15 16  2  0  0  0
 14 17  1  0  0  0
 26 20  1  0  0  0
  6  1  1  0  0  0
 16 11  1  0  0  0
 29 20  1  0  0  0
  7 10  1  0  0  0
M  END
>  <minimizedAffinity>
-7.70562

>  <minimizedRMSD>
1.59108

$$$$
ChemDiv-G756-0783 MCULE-9659693839 MolPort-007-879-403 PubChem-46356215 ZINC000033067909 ZINC33067909


 32 35  0  0  0  0  0  0  0  0999 V2000
   18.1577  -11.5844   15.5172 C   0  0  0  0  0  0  0  0  0  0  0  0
   17.3154  -10.4913   16.0792 C   0  0  0  0  0  0  0  0  0  0  0  0
   17.1876  -10.4406   17.4707 C   0  0  0  0  0  0  0  0  0  0  0  0
   16.4337   -9.4374   18.0804 C   0  0  0  0  0  0  0  0  0  0  0  0
   15.7969   -8.4662   17.3074 C   0  0  0  0  0  0  0  0  0  0  0  0
   15.9236   -8.5107   15.9130 C   0  0  0  0  0  0  0  0  0  0  0  0
   16.6707   -9.5107   15.2797 C   0  0  0  0  0  0  0  0  0  0  0  0
   15.0363   -7.4465   17.9696 N   0  0  0  0  0  0  0  0  0  0  0  0
   13.6553   -7.5134   18.3561 C   0  0  0  0  0  0  0  0  0  0  0  0
   12.9912   -8.5673   18.1570 O   0  0  0  0  0  0  0  0  0  0  0  0
   15.5121   -6.6111   18.1817 H   0  0  0  0  0  0  0  0  0  0  0  0
   12.9990   -6.3525   19.0019 C   0  0  0  0  0  0  0  0  0  0  0  0
   13.3325   -5.9252   20.3064 C   0  0  0  0  0  0  0  0  0  0  0  0
   14.2827   -6.5570   21.0391 F   0  0  0  0  0  0  0  0  0  0  0  0
   12.6822   -4.8230   20.8709 C   0  0  0  0  0  0  0  0  0  0  0  0
   11.7001   -4.1382   20.1529 C   0  0  0  0  0  0  0  0  0  0  0  0
   11.3639   -4.5519   18.8637 C   0  0  0  0  0  0  0  0  0  0  0  0
   12.0099   -5.6511   18.2931 C   0  0  0  0  0  0  0  0  0  0  0  0
   16.7293   -9.4593   13.8779 O   0  0  0  0  0  0  0  0  0  0  0  0
   17.5954  -10.2334   13.0601 C   0  0  0  0  0  0  0  0  0  0  0  0
   17.3712   -9.8877   11.6320 C   0  0  0  0  0  0  0  0  0  0  0  0
   16.1730  -10.2260   11.0126 C   0  0  0  0  0  0  0  0  0  0  0  0
   15.9784   -9.8610    9.6820 C   0  0  0  0  0  0  0  0  0  0  0  0
   14.8943  -10.1730    9.1170 O   0  0  0  0  0  0  0  0  0  0  0  0
   16.9525   -9.1751    9.0062 N   0  0  0  0  0  0  0  0  0  0  0  0
   16.7538   -8.8198    7.7019 C   0  0  0  0  0  0  0  0  0  0  0  0
   17.7307   -8.1206    6.9929 C   0  0  0  0  0  0  0  0  0  0  0  0
   18.9223   -7.7805    7.6278 C   0  0  0  0  0  0  0  0  0  0  0  0
   19.1307   -8.1391    8.9581 C   0  0  0  0  0  0  0  0  0  0  0  0
   20.4155   -7.7652    9.6169 C   0  0  0  0  0  0  0  0  0  0  0  0
   18.1290   -8.8453    9.6454 C   0  0  0  0  0  0  0  0  0  0  0  0
   18.3180   -9.2016   10.9451 N   0  0  0  0  0  0  0  0  0  0  0  0
  1  2  1  0  0  0
  2  3  2  0  0  0
  3  4  1  0  0  0
  4  5  2  0  0  0
  5  8  1  0  0  0
  5  6  1  0  0  0
  8  9  1  0  0  0
  9 10  2  0  0  0
  9 12  1  0  0  0
 12 13  2  0  0  0
 13 14  1  0  0  0
 13 15  1  0  0  0
 15 16  2  0  0  0
 16 17  1  0  0  0
 17 18  2  0  0  0
 18 12  1  0  0  0
  6  7  2  0  0  0
  7 19  1  0  0  0
  7  2  1  0  0  0
 19 20  1  0  0  0
 20 21  1  0  0  0
 21 22  2  0  0  0
 22 23  1  0  0  0
 23 24  2  0  0  0
 23 25  1  0  0  0
 25 26  1  0  0  0
 26 27  2  0  0  0
 27 28  1  0  0  0
 28 29  2  0  0  0
 29 30  1  0  0  0
 29 31  1  0  0  0
 31 32  2  0  0  0
 31 25  1  0  0  0
 32 21  1  0  0  0
  8 11  1  0  0  0
M  END
>  <minimizedAffinity>
-7.69517

>  <minimizedRMSD>
1.55024

$$$$
ChemDiv-G355-3262 MCULE-8655974879 MolPort-010-743-026 PubChem-50793990 ZINC000035428406 ZINC35428406


 28 30  0  0  0  0  0  0  0  0999 V2000
   16.8359   -9.6742   16.7389 C   0  0  0  0  0  0  0  0  0  0  0  0
   17.3563  -10.8981   17.1598 C   0  0  0  0  0  0  0  0  0  0  0  0
   17.8845  -11.7950   16.2314 C   0  0  0  0  0  0  0  0  0  0  0  0
   17.9081  -11.4810   14.8692 C   0  0  0  0  0  0  0  0  0  0  0  0
   18.4857  -12.5016   13.9490 C   0  0  0  0  0  0  0  0  0  0  0  0
   17.3799  -10.2387   14.4267 C   0  0  0  0  0  0  0  0  0  0  0  0
   16.8512   -9.3561   15.3749 C   0  0  0  0  0  0  0  0  0  0  0  0
   15.1292   -7.9723   17.6114 C   0  0  0  0  0  0  0  0  0  0  0  0
   14.3959   -8.0301   16.5899 O   0  0  0  0  0  0  0  0  0  0  0  0
   16.3132   -8.7725   17.7235 N   0  0  0  0  0  0  0  0  0  0  0  0
   16.8202   -8.6948   18.5639 H   0  0  0  0  0  0  0  0  0  0  0  0
   14.7508   -7.0574   18.7275 C   0  0  0  0  0  0  0  0  0  0  0  0
   15.5961   -7.1326   21.0756 C   0  0  0  0  0  0  0  0  0  0  0  0
   14.6951   -7.8021   20.0527 C   0  0  0  0  0  0  0  0  0  0  0  0
   13.2741   -7.7898   20.5692 C   0  0  0  0  0  0  0  0  0  0  0  0
   17.3543   -9.8122   13.0889 O   0  0  0  0  0  0  0  0  0  0  0  0
   18.4779   -9.3674   12.3422 C   0  0  0  0  0  0  0  0  0  0  0  0
   18.1237   -9.2799   10.9003 C   0  0  0  0  0  0  0  0  0  0  0  0
   16.9468   -9.8996   10.4327 C   0  0  0  0  0  0  0  0  0  0  0  0
   16.6522   -9.8314    9.0632 C   0  0  0  0  0  0  0  0  0  0  0  0
   15.6142  -10.3689    8.5995 O   0  0  0  0  0  0  0  0  0  0  0  0
   17.5187   -9.1725    8.2566 N   0  0  0  0  0  0  0  0  0  0  0  0
   17.4485   -8.9791    6.9782 O   0  0  0  0  0  0  0  0  0  0  0  0
   18.4982   -8.2777    6.5998 C   0  0  0  0  0  0  0  0  0  0  0  0
   18.7559   -7.8645    5.1966 C   0  0  0  0  0  0  0  0  0  0  0  0
   19.3260   -7.9818    7.6892 C   0  0  0  0  0  0  0  0  0  0  0  0
   18.6311   -8.5921    8.7150 C   0  0  0  0  0  0  0  0  0  0  0  0
   18.9588   -8.6334   10.0301 N   0  0  0  0  0  0  0  0  0  0  0  0
 13 14  1  0  0  0
 14 15  1  0  0  0
 14 12  1  0  0  0
 12  8  1  0  0  0
  8  9  2  0  0  0
  8 10  1  0  0  0
 10  1  1  0  0  0
  1  2  2  0  0  0
  2  3  1  0  0  0
  3  4  2  0  0  0
  4  5  1  0  0  0
  4  6  1  0  0  0
  6 16  1  0  0  0
  6  7  2  0  0  0
 16 17  1  0  0  0
 17 18  1  0  0  0
 18 19  2  0  0  0
 19 20  1  0  0  0
 20 21  2  0  0  0
 20 22  1  0  0  0
 22 23  1  0  0  0
 23 24  1  0  0  0
 24 25  1  0  0  0
 24 26  2  0  0  0
 26 27  1  0  0  0
 27 28  2  0  0  0
 27 22  1  0  0  0
 28 18  1  0  0  0
  7  1  1  0  0  0
 10 11  1  0  0  0
M  END
>  <minimizedAffinity>
-7.67689

>  <minimizedRMSD>
1.67004

$$$$
ChemDiv-C679-4871 MCULE-6802551305 MolPort-007-655-998 PubChem-20874318 ZINC000013368297 ZINC13368297


 31 35  0  0  0  0  0  0  0  0999 V2000
   15.6462   -8.2587   17.0082 C   0  0  0  0  0  0  0  0  0  0  0  0
   15.7025   -8.4359   15.6172 C   0  0  0  0  0  0  0  0  0  0  0  0
   16.4539   -9.4750   15.0594 C   0  0  0  0  0  0  0  0  0  0  0  0
   17.1576  -10.3467   15.9050 C   0  0  0  0  0  0  0  0  0  0  0  0
   17.1070  -10.1756   17.2905 C   0  0  0  0  0  0  0  0  0  0  0  0
   16.3537   -9.1341   17.8384 C   0  0  0  0  0  0  0  0  0  0  0  0
   12.9762   -8.4084   18.2390 O   0  0  0  0  0  0  0  0  0  0  0  0
   13.5798   -7.3023   18.1845 C   0  0  0  0  0  0  0  0  0  0  0  0
   14.8879   -7.1999   17.6083 N   0  0  0  0  0  0  0  0  0  0  0  0
   15.3096   -6.3105   17.6263 H   0  0  0  0  0  0  0  0  0  0  0  0
   12.9394   -6.0750   18.7432 C   0  0  0  0  0  0  0  0  0  0  0  0
   11.4089   -6.1872   18.6783 C   0  0  0  0  0  0  0  0  0  0  0  0
   10.7517   -5.2445   19.6816 C   0  0  0  0  0  0  0  0  0  0  0  0
   11.1530   -5.5877   21.1233 C   0  0  0  0  0  0  0  0  0  0  0  0
   12.5285   -6.2585   21.2378 C   0  0  0  0  0  0  0  0  0  0  0  0
   13.4798   -5.7670   20.1494 C   0  0  0  0  0  0  0  0  0  0  0  0
   16.4842   -9.6173   13.6698 O   0  0  0  0  0  0  0  0  0  0  0  0
   17.6021  -10.1577   12.9779 C   0  0  0  0  0  0  0  0  0  0  0  0
   17.5281   -9.7827   11.5412 C   0  0  0  0  0  0  0  0  0  0  0  0
   16.4496  -10.2271   10.7583 C   0  0  0  0  0  0  0  0  0  0  0  0
   16.3900   -9.8407    9.4149 C   0  0  0  0  0  0  0  0  0  0  0  0
   15.4393  -10.2273    8.6846 O   0  0  0  0  0  0  0  0  0  0  0  0
   17.3724   -9.0437    8.9177 N   0  0  0  0  0  0  0  0  0  0  0  0
   17.4355   -8.6103    7.6611 N   0  0  0  0  0  0  0  0  0  0  0  0
   18.5191   -7.8230    7.4452 C   0  0  0  0  0  0  0  0  0  0  0  0
   19.4708   -7.6592    8.8438 S   0  0  0  0  0  0  0  0  0  0  0  0
   18.3927   -8.6248    9.6953 C   0  0  0  0  0  0  0  0  0  0  0  0
   18.4869   -8.9788   11.0002 N   0  0  0  0  0  0  0  0  0  0  0  0
   18.8668   -7.2472    6.1118 C   0  0  0  0  0  0  0  0  0  0  0  0
   19.1203   -8.3673    5.1200 C   0  0  0  0  0  0  0  0  0  0  0  0
   20.2870   -7.6287    5.7354 C   0  0  0  0  0  0  0  0  0  0  0  0
  7  8  2  0  0  0
  8  9  1  0  0  0
  8 11  1  0  0  0
  9  1  1  0  0  0
  1  2  2  0  0  0
  2  3  1  0  0  0
  3 17  1  0  0  0
  3  4  2  0  0  0
 17 18  1  0  0  0
 18 19  1  0  0  0
 19 20  2  0  0  0
 20 21  1  0  0  0
 21 22  2  0  0  0
 21 23  1  0  0  0
 23 24  1  0  0  0
 24 25  2  0  0  0
 25 26  1  0  0  0
 25 29  1  0  0  0
 26 27  1  0  0  0
 27 28  2  0  0  0
 27 23  1  0  0  0
 28 19  1  0  0  0
 29 30  1  0  0  0
 30 31  1  0  0  0
 31 29  1  0  0  0
  4  5  1  0  0  0
  5  6  2  0  0  0
  6  1  1  0  0  0
 11 12  1  0  0  0
 12 13  1  0  0  0
 13 14  1  0  0  0
 14 15  1  0  0  0
 15 16  1  0  0  0
 16 11  1  0  0  0
  9 10  1  0  0  0
M  END
>  <minimizedAffinity>
-7.67090

>  <minimizedRMSD>
2.09280

$$$$
ChemDiv-G756-0352 MCULE-8632232765 MolPort-010-744-626 PubChem-50802107 ZINC000033268541 ZINC33268541


 32 35  0  0  0  0  0  0  0  0999 V2000
   19.1279  -12.4560   13.4737 C   0  0  0  0  0  0  0  0  0  0  0  0
   18.2821  -11.5972   14.3495 C   0  0  0  0  0  0  0  0  0  0  0  0
   18.2285  -11.9342   15.7055 C   0  0  0  0  0  0  0  0  0  0  0  0
   17.4568  -11.1864   16.5951 C   0  0  0  0  0  0  0  0  0  0  0  0
   16.7246  -10.0890   16.1418 C   0  0  0  0  0  0  0  0  0  0  0  0
   16.7748   -9.7462   14.7845 C   0  0  0  0  0  0  0  0  0  0  0  0
   17.5430  -10.4814   13.8742 C   0  0  0  0  0  0  0  0  0  0  0  0
   15.9455   -9.3419   17.0854 N   0  0  0  0  0  0  0  0  0  0  0  0
   15.3205   -8.0709   16.8662 C   0  0  0  0  0  0  0  0  0  0  0  0
   15.3994   -7.4860   15.7535 O   0  0  0  0  0  0  0  0  0  0  0  0
   15.8277   -9.7436   17.9764 H   0  0  0  0  0  0  0  0  0  0  0  0
   14.5893   -7.4152   17.9867 C   0  0  0  0  0  0  0  0  0  0  0  0
   15.4991   -7.0380   19.0155 O   0  0  0  0  0  0  0  0  0  0  0  0
   15.2192   -7.1804   20.3792 C   0  0  0  0  0  0  0  0  0  0  0  0
   16.1639   -6.7420   21.3134 C   0  0  0  0  0  0  0  0  0  0  0  0
   15.9140   -6.8686   22.6833 C   0  0  0  0  0  0  0  0  0  0  0  0
   14.7153   -7.4344   23.1265 C   0  0  0  0  0  0  0  0  0  0  0  0
   13.7652   -7.8727   22.2001 C   0  0  0  0  0  0  0  0  0  0  0  0
   14.0148   -7.7457   20.8307 C   0  0  0  0  0  0  0  0  0  0  0  0
   17.5196  -10.0485   12.5386 O   0  0  0  0  0  0  0  0  0  0  0  0
   18.3722   -9.0616   11.9760 C   0  0  0  0  0  0  0  0  0  0  0  0
   18.2201   -9.0557   10.4973 C   0  0  0  0  0  0  0  0  0  0  0  0
   17.2068   -9.7986    9.8992 C   0  0  0  0  0  0  0  0  0  0  0  0
   17.0701   -9.7547    8.5127 C   0  0  0  0  0  0  0  0  0  0  0  0
   16.1551  -10.4314    7.9680 O   0  0  0  0  0  0  0  0  0  0  0  0
   17.9192   -8.9858    7.7623 N   0  0  0  0  0  0  0  0  0  0  0  0
   17.7841   -8.9434    6.4030 C   0  0  0  0  0  0  0  0  0  0  0  0
   18.6393   -8.1625    5.6234 C   0  0  0  0  0  0  0  0  0  0  0  0
   19.6409   -7.4188    6.2443 C   0  0  0  0  0  0  0  0  0  0  0  0
   19.7784   -7.4622    7.6305 C   0  0  0  0  0  0  0  0  0  0  0  0
   18.9076   -8.2539    8.3829 C   0  0  0  0  0  0  0  0  0  0  0  0
   19.0435   -8.2947    9.7336 N   0  0  0  0  0  0  0  0  0  0  0  0
  1  2  1  0  0  0
  2  3  2  0  0  0
  3  4  1  0  0  0
  4  5  2  0  0  0
  5  8  1  0  0  0
  5  6  1  0  0  0
  8  9  1  0  0  0
  9 10  2  0  0  0
  9 12  1  0  0  0
 12 13  1  0  0  0
 13 14  1  0  0  0
 14 15  2  0  0  0
 15 16  1  0  0  0
 16 17  2  0  0  0
 17 18  1  0  0  0
 18 19  2  0  0  0
 19 14  1  0  0  0
  6  7  2  0  0  0
  7 20  1  0  0  0
  7  2  1  0  0  0
 20 21  1  0  0  0
 21 22  1  0  0  0
 22 23  2  0  0  0
 23 24  1  0  0  0
 24 25  2  0  0  0
 24 26  1  0  0  0
 26 27  1  0  0  0
 27 28  2  0  0  0
 28 29  1  0  0  0
 29 30  2  0  0  0
 30 31  1  0  0  0
 31 32  2  0  0  0
 31 26  1  0  0  0
 32 22  1  0  0  0
  8 11  1  0  0  0
M  END
>  <minimizedAffinity>
-7.66794

>  <minimizedRMSD>
1.97327

$$$$
ChemDiv-C679-4712 MCULE-7465689396 MolPort-007-655-973 PubChem-20874305 ZINC000013368268


 35 38  0  0  0  0  0  0  0  0999 V2000
   17.2392   -9.7377   15.0349 C   0  0  0  0  0  0  0  0  0  0  0  0
   18.5749   -9.3414   15.2060 C   0  0  0  0  0  0  0  0  0  0  0  0
   18.9806   -8.7303   16.3952 C   0  0  0  0  0  0  0  0  0  0  0  0
   18.0547   -8.5112   17.4187 C   0  0  0  0  0  0  0  0  0  0  0  0
   16.7208   -8.9035   17.2630 C   0  0  0  0  0  0  0  0  0  0  0  0
   16.3208   -9.5164   16.0657 C   0  0  0  0  0  0  0  0  0  0  0  0
   15.7982   -8.6555   18.3325 N   0  0  0  0  0  0  0  0  0  0  0  0
   14.6699   -7.7729   18.3006 C   0  0  0  0  0  0  0  0  0  0  0  0
   14.3484   -7.1584   17.2492 O   0  0  0  0  0  0  0  0  0  0  0  0
   15.9562   -9.1410   19.1743 H   0  0  0  0  0  0  0  0  0  0  0  0
   13.8608   -7.5859   19.5335 C   0  0  0  0  0  0  0  0  0  0  0  0
   13.6542   -6.1997   19.7667 O   0  0  0  0  0  0  0  0  0  0  0  0
   13.4869   -5.6104   21.0300 C   0  0  0  0  0  0  0  0  0  0  0  0
   12.5893   -4.5378   21.1124 C   0  0  0  0  0  0  0  0  0  0  0  0
   12.3465   -3.8957   22.3280 C   0  0  0  0  0  0  0  0  0  0  0  0
   13.0064   -4.3165   23.4821 C   0  0  0  0  0  0  0  0  0  0  0  0
   13.9142   -5.3747   23.4181 C   0  0  0  0  0  0  0  0  0  0  0  0
   14.1654   -6.0273   22.2064 C   0  0  0  0  0  0  0  0  0  0  0  0
   15.1854   -7.1143   22.2210 C   0  0  0  0  0  0  0  0  0  0  0  0
   16.7997  -10.3473   13.8565 O   0  0  0  0  0  0  0  0  0  0  0  0
   17.6881  -10.9682   12.9368 C   0  0  0  0  0  0  0  0  0  0  0  0
   17.4261   -9.0355    9.1967 N   0  0  0  0  0  0  0  0  0  0  0  0
   17.4883   -8.3664    8.0480 N   0  0  0  0  0  0  0  0  0  0  0  0
   18.6426   -7.6677    7.9295 C   0  0  0  0  0  0  0  0  0  0  0  0
   19.6586   -7.8783    9.2735 S   0  0  0  0  0  0  0  0  0  0  0  0
   18.5150   -8.8849    9.9800 C   0  0  0  0  0  0  0  0  0  0  0  0
   18.6188   -9.4999   11.1837 N   0  0  0  0  0  0  0  0  0  0  0  0
   17.5960  -10.2912   11.6158 C   0  0  0  0  0  0  0  0  0  0  0  0
   16.4495  -10.4651   10.8226 C   0  0  0  0  0  0  0  0  0  0  0  0
   16.3823   -9.8143    9.5856 C   0  0  0  0  0  0  0  0  0  0  0  0
   15.3691   -9.9533    8.8494 O   0  0  0  0  0  0  0  0  0  0  0  0
   18.9898   -6.8646    6.7225 C   0  0  0  0  0  0  0  0  0  0  0  0
   19.9597   -7.6216    5.8226 C   0  0  0  0  0  0  0  0  0  0  0  0
   19.2309   -8.5610    4.8714 C   0  0  0  0  0  0  0  0  0  0  0  0
   19.1027   -7.9356    3.4936 C   0  0  0  0  0  0  0  0  0  0  0  0
 22 23  1  0  0  0
 23 24  2  0  0  0
 24 25  1  0  0  0
 25 26  1  0  0  0
 26 27  2  0  0  0
 27 28  1  0  0  0
 28 21  1  0  0  0
 21 20  1  0  0  0
 20  1  1  0  0  0
  1  2  2  0  0  0
  2  3  1  0  0  0
  3  4  2  0  0  0
  4  5  1  0  0  0
  5  6  2  0  0  0
  5  7  1  0  0  0
  7  8  1  0  0  0
  8 11  1  0  0  0
 11 12  1  0  0  0
 12 13  1  0  0  0
 13 14  2  0  0  0
 14 15  1  0  0  0
 15 16  2  0  0  0
 16 17  1  0  0  0
 17 18  2  0  0  0
 18 19  1  0  0  0
  8  9  2  0  0  0
 28 29  2  0  0  0
 29 30  1  0  0  0
 30 31  2  0  0  0
 24 32  1  0  0  0
 32 33  1  0  0  0
 33 34  1  0  0  0
 34 35  1  0  0  0
 26 22  1  0  0  0
  6  1  1  0  0  0
 18 13  1  0  0  0
 30 22  1  0  0  0
  7 10  1  0  0  0
M  END
>  <minimizedAffinity>
-7.65572

>  <minimizedRMSD>
2.10409

$$$$
ChemDiv-C679-5364 MCULE-3620640741 MolPort-010-797-210 PubChem-52098562 ZINC000041085711 ZINC41085711


 26 28  0  0  0  0  0  0  0  0999 V2000
   16.9995   -9.2374   16.3511 C   0  0  0  0  0  0  0  0  0  0  0  0
   16.2734   -9.0775   15.1610 C   0  0  0  0  0  0  0  0  0  0  0  0
   16.8129   -9.4806   13.9355 C   0  0  0  0  0  0  0  0  0  0  0  0
   18.0953  -10.0506   13.9017 C   0  0  0  0  0  0  0  0  0  0  0  0
   18.8239  -10.2122   15.0825 C   0  0  0  0  0  0  0  0  0  0  0  0
   18.2763   -9.8063   16.3024 C   0  0  0  0  0  0  0  0  0  0  0  0
   15.3654   -7.9512   17.8497 C   0  0  0  0  0  0  0  0  0  0  0  0
   14.7161   -7.4573   16.8890 O   0  0  0  0  0  0  0  0  0  0  0  0
   16.4730   -8.8318   17.6220 N   0  0  0  0  0  0  0  0  0  0  0  0
   16.9186   -9.1961   18.4207 H   0  0  0  0  0  0  0  0  0  0  0  0
   14.9667   -7.6382   19.2536 C   0  0  0  0  0  0  0  0  0  0  0  0
   12.6885   -7.6873   20.2747 C   0  0  0  0  0  0  0  0  0  0  0  0
   13.6038   -6.9652   19.3040 C   0  0  0  0  0  0  0  0  0  0  0  0
   16.0576   -9.3044   12.7734 O   0  0  0  0  0  0  0  0  0  0  0  0
   15.9614  -10.2988   11.7622 C   0  0  0  0  0  0  0  0  0  0  0  0
   16.6616   -9.8326   10.5365 C   0  0  0  0  0  0  0  0  0  0  0  0
   16.1876  -10.2143    9.2744 C   0  0  0  0  0  0  0  0  0  0  0  0
   16.8455   -9.7417    8.1339 C   0  0  0  0  0  0  0  0  0  0  0  0
   16.4304  -10.0817    6.9942 O   0  0  0  0  0  0  0  0  0  0  0  0
   17.9271   -8.9171    8.2832 N   0  0  0  0  0  0  0  0  0  0  0  0
   18.7014   -8.3502    7.3059 C   0  0  0  0  0  0  0  0  0  0  0  0
   18.4815   -8.5538    5.8441 C   0  0  0  0  0  0  0  0  0  0  0  0
   19.7442   -7.5423    7.7691 C   0  0  0  0  0  0  0  0  0  0  0  0
   19.6781   -7.5505    9.4603 S   0  0  0  0  0  0  0  0  0  0  0  0
   18.3500   -8.5642    9.5174 C   0  0  0  0  0  0  0  0  0  0  0  0
   17.7355   -9.0036   10.6427 N   0  0  0  0  0  0  0  0  0  0  0  0
 12 13  1  0  0  0
 13 11  1  0  0  0
 11  7  1  0  0  0
  7  8  2  0  0  0
  7  9  1  0  0  0
  9  1  1  0  0  0
  1  2  2  0  0  0
  2  3  1  0  0  0
  3 14  1  0  0  0
  3  4  2  0  0  0
 14 15  1  0  0  0
 15 16  1  0  0  0
 16 17  2  0  0  0
 17 18  1  0  0  0
 18 19  2  0  0  0
 18 20  1  0  0  0
 20 21  1  0  0  0
 21 22  1  0  0  0
 21 23  2  0  0  0
 23 24  1  0  0  0
 24 25  1  0  0  0
 25 26  2  0  0  0
 25 20  1  0  0  0
 26 16  1  0  0  0
  4  5  1  0  0  0
  5  6  2  0  0  0
  6  1  1  0  0  0
  9 10  1  0  0  0
M  END
>  <minimizedAffinity>
-7.65323

>  <minimizedRMSD>
1.62569

$$$$
ChemDiv-G357-4841 MCULE-9187207151 MolPort-010-772-421 PubChem-50794142 ZINC000045995857 ZINC45995857


 36 39  0  0  0  0  0  0  0  0999 V2000
   16.7109   -9.3318   16.8660 C   0  0  0  0  0  0  0  0  0  0  0  0
   17.4005  -10.5217   17.1058 C   0  0  0  0  0  0  0  0  0  0  0  0
   17.6528  -11.4157   16.0701 C   0  0  0  0  0  0  0  0  0  0  0  0
   17.2229  -11.1216   14.7788 C   0  0  0  0  0  0  0  0  0  0  0  0
   16.5476   -9.9255   14.4926 C   0  0  0  0  0  0  0  0  0  0  0  0
   16.3037   -9.0063   15.5490 C   0  0  0  0  0  0  0  0  0  0  0  0
   15.7017   -7.6624   15.2815 C   0  0  0  0  0  0  0  0  0  0  0  0
   15.2076   -7.9862   18.4057 C   0  0  0  0  0  0  0  0  0  0  0  0
   14.1502   -8.4847   17.9357 O   0  0  0  0  0  0  0  0  0  0  0  0
   16.4905   -8.4523   17.9762 N   0  0  0  0  0  0  0  0  0  0  0  0
   17.2792   -8.1467   18.4800 H   0  0  0  0  0  0  0  0  0  0  0  0
   15.1213   -6.9551   19.4777 C   0  0  0  0  0  0  0  0  0  0  0  0
   13.9612   -6.1498   19.2951 O   0  0  0  0  0  0  0  0  0  0  0  0
   11.2964   -5.1081   22.3782 C   0  0  0  0  0  0  0  0  0  0  0  0
   10.9585   -4.8860   21.0374 C   0  0  0  0  0  0  0  0  0  0  0  0
   11.8530   -5.2358   20.0215 C   0  0  0  0  0  0  0  0  0  0  0  0
   13.0873   -5.8142   20.3351 C   0  0  0  0  0  0  0  0  0  0  0  0
   13.4206   -6.0395   21.6810 C   0  0  0  0  0  0  0  0  0  0  0  0
   12.5267   -5.6905   22.6970 C   0  0  0  0  0  0  0  0  0  0  0  0
   10.0567   -3.2663   23.4703 C   0  0  0  0  0  0  0  0  0  0  0  0
   10.3426   -4.7568   23.4689 C   0  0  0  0  0  0  0  0  0  0  0  0
   16.1295   -9.6917   13.0852 C   0  0  0  0  0  0  0  0  0  0  0  0
   14.9854  -10.0693   12.7068 O   0  0  0  0  0  0  0  0  0  0  0  0
   16.9798   -9.0533   12.1767 O   0  0  0  0  0  0  0  0  0  0  0  0
   18.0854   -9.7098   11.5677 C   0  0  0  0  0  0  0  0  0  0  0  0
   18.1689   -9.3476   10.1247 C   0  0  0  0  0  0  0  0  0  0  0  0
   17.2406   -9.8917    9.2134 C   0  0  0  0  0  0  0  0  0  0  0  0
   17.3310   -9.5238    7.8655 C   0  0  0  0  0  0  0  0  0  0  0  0
   16.5263   -9.9836    7.0134 O   0  0  0  0  0  0  0  0  0  0  0  0
   18.3093   -8.6585    7.5069 N   0  0  0  0  0  0  0  0  0  0  0  0
   18.5788   -8.1838    6.3340 O   0  0  0  0  0  0  0  0  0  0  0  0
   19.6134   -7.3724    6.4341 C   0  0  0  0  0  0  0  0  0  0  0  0
   20.2076   -6.6415    5.2843 C   0  0  0  0  0  0  0  0  0  0  0  0
   20.0672   -7.2965    7.7554 C   0  0  0  0  0  0  0  0  0  0  0  0
   19.1798   -8.1493    8.3831 C   0  0  0  0  0  0  0  0  0  0  0  0
   19.1316   -8.4761    9.6977 N   0  0  0  0  0  0  0  0  0  0  0  0
 20 21  1  0  0  0
 21 14  1  0  0  0
 14 15  2  0  0  0
 15 16  1  0  0  0
 16 17  2  0  0  0
 17 13  1  0  0  0
 17 18  1  0  0  0
 13 12  1  0  0  0
 12  8  1  0  0  0
  8  9  2  0  0  0
  8 10  1  0  0  0
 10  1  1  0  0  0
  1  2  2  0  0  0
  2  3  1  0  0  0
  3  4  2  0  0  0
  4  5  1  0  0  0
  5 22  1  0  0  0
  5  6  2  0  0  0
 22 23  2  0  0  0
 22 24  1  0  0  0
 24 25  1  0  0  0
 25 26  1  0  0  0
 26 27  2  0  0  0
 27 28  1  0  0  0
 28 29  2  0  0  0
 28 30  1  0  0  0
 30 31  1  0  0  0
 31 32  1  0  0  0
 32 33  1  0  0  0
 32 34  2  0  0  0
 34 35  1  0  0  0
 35 36  2  0  0  0
 35 30  1  0  0  0
 36 26  1  0  0  0
  6  7  1  0  0  0
  6  1  1  0  0  0
 18 19  2  0  0  0
 19 14  1  0  0  0
 10 11  1  0  0  0
M  END
>  <minimizedAffinity>
-7.64477

>  <minimizedRMSD>
2.35702

$$$$
ChemDiv-C679-4858 MCULE-8651971030 MolPort-007-655-992 PubChem-46258420 ZINC000020859354 ZINC20859354


 32 36  0  0  0  0  0  0  0  0999 V2000
   16.5321   -9.3341   17.3258 C   0  0  0  0  0  0  0  0  0  0  0  0
   16.6010   -9.0877   15.9461 C   0  0  0  0  0  0  0  0  0  0  0  0
   17.3354   -9.9304   15.1058 C   0  0  0  0  0  0  0  0  0  0  0  0
   18.0086  -11.0333   15.6543 C   0  0  0  0  0  0  0  0  0  0  0  0
   17.9453  -11.2840   17.0271 C   0  0  0  0  0  0  0  0  0  0  0  0
   17.2090  -10.4360   17.8586 C   0  0  0  0  0  0  0  0  0  0  0  0
   14.6354   -7.6967   17.8847 C   0  0  0  0  0  0  0  0  0  0  0  0
   14.1602   -7.7082   16.7164 O   0  0  0  0  0  0  0  0  0  0  0  0
   15.7887   -8.4871   18.2126 N   0  0  0  0  0  0  0  0  0  0  0  0
   16.1021   -8.4427   19.1448 H   0  0  0  0  0  0  0  0  0  0  0  0
   12.2068   -4.5270   21.8597 F   0  0  0  0  0  0  0  0  0  0  0  0
   12.7908   -5.2885   20.9038 C   0  0  0  0  0  0  0  0  0  0  0  0
   12.3153   -5.2473   19.5904 C   0  0  0  0  0  0  0  0  0  0  0  0
   12.9179   -6.0333   18.6039 C   0  0  0  0  0  0  0  0  0  0  0  0
   14.0003   -6.8669   18.9235 C   0  0  0  0  0  0  0  0  0  0  0  0
   14.4714   -6.9012   20.2443 C   0  0  0  0  0  0  0  0  0  0  0  0
   13.8692   -6.1147   21.2308 C   0  0  0  0  0  0  0  0  0  0  0  0
   17.3799   -9.6501   13.7377 O   0  0  0  0  0  0  0  0  0  0  0  0
   18.1714  -10.4001   12.8259 C   0  0  0  0  0  0  0  0  0  0  0  0
   17.9029   -9.9411   11.4377 C   0  0  0  0  0  0  0  0  0  0  0  0
   16.6657  -10.2248   10.8358 C   0  0  0  0  0  0  0  0  0  0  0  0
   16.4262   -9.7580    9.5387 C   0  0  0  0  0  0  0  0  0  0  0  0
   15.3272   -9.9962    8.9709 O   0  0  0  0  0  0  0  0  0  0  0  0
   17.3966   -9.0443    8.9092 N   0  0  0  0  0  0  0  0  0  0  0  0
   17.2934   -8.5404    7.6818 N   0  0  0  0  0  0  0  0  0  0  0  0
   18.4140   -7.8751    7.3059 C   0  0  0  0  0  0  0  0  0  0  0  0
   19.5887   -7.8700    8.5346 S   0  0  0  0  0  0  0  0  0  0  0  0
   18.5728   -8.7786    9.5153 C   0  0  0  0  0  0  0  0  0  0  0  0
   18.8416   -9.2111   10.7712 N   0  0  0  0  0  0  0  0  0  0  0  0
   18.5486   -7.1652    5.9988 C   0  0  0  0  0  0  0  0  0  0  0  0
   19.9987   -7.1763    5.5521 C   0  0  0  0  0  0  0  0  0  0  0  0
   19.0122   -8.1376    4.9298 C   0  0  0  0  0  0  0  0  0  0  0  0
 11 12  1  0  0  0
 12 13  2  0  0  0
 13 14  1  0  0  0
 14 15  2  0  0  0
 15 16  1  0  0  0
 15  7  1  0  0  0
 16 17  2  0  0  0
 17 12  1  0  0  0
  7  8  2  0  0  0
  7  9  1  0  0  0
  9  1  1  0  0  0
  1  2  2  0  0  0
  2  3  1  0  0  0
  3 18  1  0  0  0
  3  4  2  0  0  0
 18 19  1  0  0  0
 19 20  1  0  0  0
 20 21  2  0  0  0
 21 22  1  0  0  0
 22 23  2  0  0  0
 22 24  1  0  0  0
 24 25  1  0  0  0
 25 26  2  0  0  0
 26 27  1  0  0  0
 26 30  1  0  0  0
 27 28  1  0  0  0
 28 29  2  0  0  0
 28 24  1  0  0  0
 29 20  1  0  0  0
 30 31  1  0  0  0
 31 32  1  0  0  0
 32 30  1  0  0  0
  4  5  1  0  0  0
  5  6  2  0  0  0
  6  1  1  0  0  0
  9 10  1  0  0  0
M  END
>  <minimizedAffinity>
-7.63326

>  <minimizedRMSD>
0.87243

$$$$
ChemDiv-F172-0144 MCULE-7226932777 MolPort-010-736-202 PubChem-50764265 ZINC000035378580


 33 36  0  0  0  0  0  0  0  0999 V2000
   17.4247  -10.2357   14.2292 C   0  0  0  0  0  0  0  0  0  0  0  0
   17.9049  -11.5268   14.4998 C   0  0  0  0  0  0  0  0  0  0  0  0
   17.9642  -11.9934   15.8152 C   0  0  0  0  0  0  0  0  0  0  0  0
   17.5446  -11.1741   16.8664 C   0  0  0  0  0  0  0  0  0  0  0  0
   17.0646   -9.8854   16.6116 C   0  0  0  0  0  0  0  0  0  0  0  0
   17.0072   -9.4232   15.2880 C   0  0  0  0  0  0  0  0  0  0  0  0
   16.6409   -9.0768   17.7167 N   0  0  0  0  0  0  0  0  0  0  0  0
   15.7100   -7.9876   17.6768 C   0  0  0  0  0  0  0  0  0  0  0  0
   15.1672   -7.6302   16.5980 O   0  0  0  0  0  0  0  0  0  0  0  0
   17.0299   -9.2920   18.5951 H   0  0  0  0  0  0  0  0  0  0  0  0
   15.3449   -7.2924   18.9428 C   0  0  0  0  0  0  0  0  0  0  0  0
   14.0830   -6.6502   18.8000 O   0  0  0  0  0  0  0  0  0  0  0  0
   12.8538   -7.3187   18.6867 C   0  0  0  0  0  0  0  0  0  0  0  0
   12.1151   -7.1058   17.5166 C   0  0  0  0  0  0  0  0  0  0  0  0
   10.8885   -7.7428   17.3183 C   0  0  0  0  0  0  0  0  0  0  0  0
   10.3820   -8.5993   18.2957 C   0  0  0  0  0  0  0  0  0  0  0  0
   11.0941   -8.8055   19.4784 C   0  0  0  0  0  0  0  0  0  0  0  0
   12.3240   -8.1728   19.6875 C   0  0  0  0  0  0  0  0  0  0  0  0
   12.9903   -8.3861   21.0033 C   0  0  0  0  0  0  0  0  0  0  0  0
    9.0776   -9.2791   18.0854 C   0  0  0  0  0  0  0  0  0  0  0  0
   17.3520   -9.7385   12.9257 O   0  0  0  0  0  0  0  0  0  0  0  0
   18.4883   -9.2482   12.2265 C   0  0  0  0  0  0  0  0  0  0  0  0
   17.6621   -9.1284    8.1134 N   0  0  0  0  0  0  0  0  0  0  0  0
   17.6194   -8.9357    6.8349 O   0  0  0  0  0  0  0  0  0  0  0  0
   18.6459   -8.1854    6.4858 C   0  0  0  0  0  0  0  0  0  0  0  0
   19.4267   -7.8523    7.5981 C   0  0  0  0  0  0  0  0  0  0  0  0
   18.7309   -8.4948    8.6044 C   0  0  0  0  0  0  0  0  0  0  0  0
   19.0232   -8.5237    9.9278 N   0  0  0  0  0  0  0  0  0  0  0  0
   18.2039   -9.2248   10.7674 C   0  0  0  0  0  0  0  0  0  0  0  0
   17.0671   -9.8923   10.2670 C   0  0  0  0  0  0  0  0  0  0  0  0
   16.8067   -9.8326    8.8924 C   0  0  0  0  0  0  0  0  0  0  0  0
   15.8065  -10.4147    8.3969 O   0  0  0  0  0  0  0  0  0  0  0  0
   18.9232   -7.7576    5.0896 C   0  0  0  0  0  0  0  0  0  0  0  0
 23 24  1  0  0  0
 24 25  1  0  0  0
 25 26  2  0  0  0
 26 27  1  0  0  0
 27 28  2  0  0  0
 28 29  1  0  0  0
 29 22  1  0  0  0
 22 21  1  0  0  0
 21  1  1  0  0  0
  1  2  2  0  0  0
  2  3  1  0  0  0
  3  4  2  0  0  0
  4  5  1  0  0  0
  5  6  2  0  0  0
  5  7  1  0  0  0
  7  8  1  0  0  0
  8 11  1  0  0  0
 11 12  1  0  0  0
 12 13  1  0  0  0
 13 14  2  0  0  0
 14 15  1  0  0  0
 15 16  2  0  0  0
 16 17  1  0  0  0
 17 18  2  0  0  0
 18 19  1  0  0  0
 16 20  1  0  0  0
  8  9  2  0  0  0
 29 30  2  0  0  0
 30 31  1  0  0  0
 31 32  2  0  0  0
 25 33  1  0  0  0
 27 23  1  0  0  0
  6  1  1  0  0  0
 18 13  1  0  0  0
 31 23  1  0  0  0
  7 10  1  0  0  0
M  END
>  <minimizedAffinity>
-7.62760

>  <minimizedRMSD>
1.54431

$$$$
ChemDiv-G357-2028 MCULE-3900531522 MolPort-007-847-749 PubChem-46343530 ZINC000021633314


 34 37  0  0  0  0  0  0  0  0999 V2000
   17.5592  -10.4067   14.4919 C   0  0  0  0  0  0  0  0  0  0  0  0
   17.6675  -11.0202   15.7477 C   0  0  0  0  0  0  0  0  0  0  0  0
   17.1799  -10.3799   16.8905 C   0  0  0  0  0  0  0  0  0  0  0  0
   16.5784   -9.1212   16.7945 C   0  0  0  0  0  0  0  0  0  0  0  0
   16.4705   -8.5066   15.5383 C   0  0  0  0  0  0  0  0  0  0  0  0
   16.9575   -9.1456   14.3949 C   0  0  0  0  0  0  0  0  0  0  0  0
   16.0940   -8.4954   17.9902 N   0  0  0  0  0  0  0  0  0  0  0  0
   14.8772   -7.7526   18.1373 C   0  0  0  0  0  0  0  0  0  0  0  0
   14.0827   -7.6002   17.1721 O   0  0  0  0  0  0  0  0  0  0  0  0
   16.6558   -8.5853   18.7937 H   0  0  0  0  0  0  0  0  0  0  0  0
   14.5614   -7.1240   19.4506 C   0  0  0  0  0  0  0  0  0  0  0  0
   15.7106   -6.4606   19.9681 O   0  0  0  0  0  0  0  0  0  0  0  0
   16.1747   -6.6317   21.2790 C   0  0  0  0  0  0  0  0  0  0  0  0
   15.2944   -6.9414   22.3295 C   0  0  0  0  0  0  0  0  0  0  0  0
   15.7752   -7.1071   23.6307 C   0  0  0  0  0  0  0  0  0  0  0  0
   17.1391   -6.9630   23.8939 C   0  0  0  0  0  0  0  0  0  0  0  0
   18.0216   -6.6526   22.8563 C   0  0  0  0  0  0  0  0  0  0  0  0
   17.5444   -6.4857   21.5523 C   0  0  0  0  0  0  0  0  0  0  0  0
   18.6801   -6.0981   20.2726 Cl  0  0  0  0  0  0  0  0  0  0  0  0
   18.0708  -11.0754   13.2848 C   0  0  0  0  0  0  0  0  0  0  0  0
   18.3116  -12.3145   13.3024 O   0  0  0  0  0  0  0  0  0  0  0  0
   18.2883  -10.3327   12.1223 O   0  0  0  0  0  0  0  0  0  0  0  0
   17.2742   -9.5213   11.5482 C   0  0  0  0  0  0  0  0  0  0  0  0
   18.1005   -8.8094    7.4722 N   0  0  0  0  0  0  0  0  0  0  0  0
   18.5021   -8.4558    6.2220 C   0  0  0  0  0  0  0  0  0  0  0  0
   19.5715   -7.5631    6.2315 C   0  0  0  0  0  0  0  0  0  0  0  0
   20.0208   -7.2105    7.8243 S   0  0  0  0  0  0  0  0  0  0  0  0
   18.8288   -8.2157    8.4441 C   0  0  0  0  0  0  0  0  0  0  0  0
   18.5806   -8.4396    9.7578 N   0  0  0  0  0  0  0  0  0  0  0  0
   17.5763   -9.2898   10.1111 C   0  0  0  0  0  0  0  0  0  0  0  0
   16.7970   -9.9144    9.1249 C   0  0  0  0  0  0  0  0  0  0  0  0
   17.0823   -9.6588    7.7795 C   0  0  0  0  0  0  0  0  0  0  0  0
   16.4006  -10.2095    6.8738 O   0  0  0  0  0  0  0  0  0  0  0  0
   20.2232   -7.0010    5.0203 C   0  0  0  0  0  0  0  0  0  0  0  0
 24 25  1  0  0  0
 25 26  2  0  0  0
 26 27  1  0  0  0
 27 28  1  0  0  0
 28 29  2  0  0  0
 29 30  1  0  0  0
 30 23  1  0  0  0
 23 22  1  0  0  0
 22 20  1  0  0  0
 20 21  2  0  0  0
 20  1  1  0  0  0
  1  2  2  0  0  0
  2  3  1  0  0  0
  3  4  2  0  0  0
  4  5  1  0  0  0
  5  6  2  0  0  0
  4  7  1  0  0  0
  7  8  1  0  0  0
  8 11  1  0  0  0
 11 12  1  0  0  0
 12 13  1  0  0  0
 13 14  2  0  0  0
 14 15  1  0  0  0
 15 16  2  0  0  0
 16 17  1  0  0  0
 17 18  2  0  0  0
 18 19  1  0  0  0
  8  9  2  0  0  0
 30 31  2  0  0  0
 31 32  1  0  0  0
 32 33  2  0  0  0
 26 34  1  0  0  0
 28 24  1  0  0  0
  6  1  1  0  0  0
 18 13  1  0  0  0
 32 24  1  0  0  0
  7 10  1  0  0  0
M  END
>  <minimizedAffinity>
-7.62711

>  <minimizedRMSD>
1.44516

$$$$
ChemDiv-G756-0586 CHEMBL3182873 MCULE-7175335172 MolPort-007-879-278 PubChem-16030286 ZINC000008673371 ZINC08673371


 32 35  0  0  0  0  0  0  0  0999 V2000
   16.5619   -9.3398   17.3957 C   0  0  0  0  0  0  0  0  0  0  0  0
   16.5987   -9.0901   16.0155 C   0  0  0  0  0  0  0  0  0  0  0  0
   17.3114   -9.9319   15.1559 C   0  0  0  0  0  0  0  0  0  0  0  0
   17.9953  -11.0375   15.6855 C   0  0  0  0  0  0  0  0  0  0  0  0
   17.9624  -11.2925   17.0585 C   0  0  0  0  0  0  0  0  0  0  0  0
   17.2475  -10.4454   17.9094 C   0  0  0  0  0  0  0  0  0  0  0  0
   14.6883   -7.6915   17.9989 C   0  0  0  0  0  0  0  0  0  0  0  0
   14.2076   -7.6720   16.8330 O   0  0  0  0  0  0  0  0  0  0  0  0
   15.8394   -8.4949   18.3016 N   0  0  0  0  0  0  0  0  0  0  0  0
   16.1672   -8.4622   19.2294 H   0  0  0  0  0  0  0  0  0  0  0  0
   13.9664   -6.1652   21.3888 C   0  0  0  0  0  0  0  0  0  0  0  0
   12.8782   -5.3421   21.0836 C   0  0  0  0  0  0  0  0  0  0  0  0
   12.3817   -5.2840   19.7789 C   0  0  0  0  0  0  0  0  0  0  0  0
   12.9724   -6.0506   18.7712 C   0  0  0  0  0  0  0  0  0  0  0  0
   14.0645   -6.8814   19.0602 C   0  0  0  0  0  0  0  0  0  0  0  0
   14.5562   -6.9335   20.3719 C   0  0  0  0  0  0  0  0  0  0  0  0
   15.1197   -7.3265   23.2432 C   0  0  0  0  0  0  0  0  0  0  0  0
   14.4403   -6.2012   22.7030 O   0  0  0  0  0  0  0  0  0  0  0  0
   17.3245   -9.6478   13.7881 O   0  0  0  0  0  0  0  0  0  0  0  0
   17.9316  -10.5064   12.8316 C   0  0  0  0  0  0  0  0  0  0  0  0
   17.6074  -10.0337   11.4600 C   0  0  0  0  0  0  0  0  0  0  0  0
   16.3667  -10.3183   10.9006 C   0  0  0  0  0  0  0  0  0  0  0  0
   16.0798   -9.8394    9.6237 C   0  0  0  0  0  0  0  0  0  0  0  0
   14.9558  -10.1010    9.1134 O   0  0  0  0  0  0  0  0  0  0  0  0
   17.0073   -9.0971    8.9420 N   0  0  0  0  0  0  0  0  0  0  0  0
   16.7187   -8.6321    7.6900 C   0  0  0  0  0  0  0  0  0  0  0  0
   17.6452   -7.8716    6.9770 C   0  0  0  0  0  0  0  0  0  0  0  0
   18.8797   -7.5843    7.5531 C   0  0  0  0  0  0  0  0  0  0  0  0
   19.1801   -8.0554    8.8297 C   0  0  0  0  0  0  0  0  0  0  0  0
   20.5086   -7.7356    9.4263 C   0  0  0  0  0  0  0  0  0  0  0  0
   18.2266   -8.8203    9.5231 C   0  0  0  0  0  0  0  0  0  0  0  0
   18.5060   -9.2881   10.7701 N   0  0  0  0  0  0  0  0  0  0  0  0
 17 18  1  0  0  0
 18 11  1  0  0  0
 11 12  2  0  0  0
 12 13  1  0  0  0
 13 14  2  0  0  0
 14 15  1  0  0  0
 15 16  2  0  0  0
 15  7  1  0  0  0
 16 11  1  0  0  0
  7  8  2  0  0  0
  7  9  1  0  0  0
  9  1  1  0  0  0
  1  2  2  0  0  0
  2  3  1  0  0  0
  3 19  1  0  0  0
  3  4  2  0  0  0
 19 20  1  0  0  0
 20 21  1  0  0  0
 21 22  2  0  0  0
 22 23  1  0  0  0
 23 24  2  0  0  0
 23 25  1  0  0  0
 25 26  1  0  0  0
 26 27  2  0  0  0
 27 28  1  0  0  0
 28 29  2  0  0  0
 29 30  1  0  0  0
 29 31  1  0  0  0
 31 32  2  0  0  0
 31 25  1  0  0  0
 32 21  1  0  0  0
  4  5  1  0  0  0
  5  6  2  0  0  0
  6  1  1  0  0  0
  9 10  1  0  0  0
M  END
>  <minimizedAffinity>
-7.62308

>  <minimizedRMSD>
0.93437

$$$$
ChemDiv-D439-4117 MCULE-5348895771 MolPort-007-706-765 PubChem-46268347 ZINC000021797070 ZINC21797070


 33 36  0  0  0  0  0  0  0  0999 V2000
   17.0299   -9.7630   14.3011 C   0  0  0  0  0  0  0  0  0  0  0  0
   16.3666   -9.2623   15.4273 C   0  0  0  0  0  0  0  0  0  0  0  0
   16.6973   -9.6895   16.7198 C   0  0  0  0  0  0  0  0  0  0  0  0
   17.7112  -10.6327   16.8870 C   0  0  0  0  0  0  0  0  0  0  0  0
   18.3857  -11.1457   15.7788 C   0  0  0  0  0  0  0  0  0  0  0  0
   18.0590  -10.7241   14.4863 C   0  0  0  0  0  0  0  0  0  0  0  0
   18.8320  -11.3271   13.3643 C   0  0  0  0  0  0  0  0  0  0  0  0
   16.0287   -9.1825   17.8826 N   0  0  0  0  0  0  0  0  0  0  0  0
   15.1993   -8.0142   17.9627 C   0  0  0  0  0  0  0  0  0  0  0  0
   14.9515   -7.3428   16.9238 O   0  0  0  0  0  0  0  0  0  0  0  0
   16.1520   -9.6911   18.7165 H   0  0  0  0  0  0  0  0  0  0  0  0
   14.5836   -7.6066   19.2492 C   0  0  0  0  0  0  0  0  0  0  0  0
   15.3238   -7.1107   20.3535 C   0  0  0  0  0  0  0  0  0  0  0  0
   17.0608   -6.8386   20.3167 Cl  0  0  0  0  0  0  0  0  0  0  0  0
   14.6596   -6.7615   21.5345 C   0  0  0  0  0  0  0  0  0  0  0  0
   13.2747   -6.8929   21.6388 C   0  0  0  0  0  0  0  0  0  0  0  0
   12.5383   -7.3694   20.5558 C   0  0  0  0  0  0  0  0  0  0  0  0
   13.1888   -7.7203   19.3718 C   0  0  0  0  0  0  0  0  0  0  0  0
   16.6162   -9.2650   13.0551 O   0  0  0  0  0  0  0  0  0  0  0  0
   16.1409  -10.0482   11.9696 C   0  0  0  0  0  0  0  0  0  0  0  0
   18.8309   -8.2796    7.5200 N   0  0  0  0  0  0  0  0  0  0  0  0
   19.7403   -7.5178    8.1778 C   0  0  0  0  0  0  0  0  0  0  0  0
   19.5502   -7.5731    9.5246 N   0  0  0  0  0  0  0  0  0  0  0  0
   18.4915   -8.4002    9.6248 C   0  0  0  0  0  0  0  0  0  0  0  0
   17.8960   -8.7846   10.7800 N   0  0  0  0  0  0  0  0  0  0  0  0
   16.8282   -9.6346   10.7182 C   0  0  0  0  0  0  0  0  0  0  0  0
   16.3462  -10.0898    9.4742 C   0  0  0  0  0  0  0  0  0  0  0  0
   16.9929   -9.6654    8.3069 C   0  0  0  0  0  0  0  0  0  0  0  0
   16.5940  -10.0530    7.1773 O   0  0  0  0  0  0  0  0  0  0  0  0
   18.0553   -8.8263    8.4380 N   0  0  0  0  0  0  0  0  0  0  0  0
   20.0212   -8.0964    5.3888 C   0  0  0  0  0  0  0  0  0  0  0  0
   18.7197   -8.4666    6.0752 C   0  0  0  0  0  0  0  0  0  0  0  0
   17.5820   -7.6326    5.5165 C   0  0  0  0  0  0  0  0  0  0  0  0
 31 32  1  0  0  0
 32 33  1  0  0  0
 32 21  1  0  0  0
 21 22  1  0  0  0
 22 23  2  0  0  0
 23 24  1  0  0  0
 24 25  2  0  0  0
 25 26  1  0  0  0
 26 20  1  0  0  0
 26 27  2  0  0  0
 20 19  1  0  0  0
 19  1  1  0  0  0
  1  2  2  0  0  0
  2  3  1  0  0  0
  3  8  1  0  0  0
  3  4  2  0  0  0
  8  9  1  0  0  0
  9 10  2  0  0  0
  9 12  1  0  0  0
 12 13  2  0  0  0
 13 14  1  0  0  0
 13 15  1  0  0  0
 15 16  2  0  0  0
 16 17  1  0  0  0
 17 18  2  0  0  0
 18 12  1  0  0  0
  4  5  1  0  0  0
  5  6  2  0  0  0
  6  7  1  0  0  0
  6  1  1  0  0  0
 27 28  1  0  0  0
 28 29  2  0  0  0
 28 30  1  0  0  0
 30 21  1  0  0  0
 30 24  1  0  0  0
  8 11  1  0  0  0
M  END
>  <minimizedAffinity>
-7.59375

>  <minimizedRMSD>
1.48733

$$$$
ChemDiv-Y040-8668 MCULE-1189277132 MolPort-006-316-995 PubChem-4902580 ZINC000011867223 ZINC11867223


 30 32  0  0  0  0  0  0  0  0999 V2000
   15.1978   -8.8178   15.9199 C   0  0  0  0  0  0  0  0  0  0  0  0
   14.0527   -7.5893   17.8042 N   0  0  0  0  0  0  0  0  0  0  0  0
   15.2469   -8.1657   17.2591 C   0  0  0  0  0  0  0  0  0  0  0  0
   16.3314   -8.1514   17.8994 O   0  0  0  0  0  0  0  0  0  0  0  0
   13.2434   -7.6397   17.2459 H   0  0  0  0  0  0  0  0  0  0  0  0
   14.3122   -6.8456   21.4819 C   0  0  0  0  0  0  0  0  0  0  0  0
   14.4627   -7.4947   20.2491 C   0  0  0  0  0  0  0  0  0  0  0  0
   13.9156   -6.9469   19.0790 C   0  0  0  0  0  0  0  0  0  0  0  0
   13.2135   -5.7397   19.1524 C   0  0  0  0  0  0  0  0  0  0  0  0
   13.0581   -5.0852   20.3770 C   0  0  0  0  0  0  0  0  0  0  0  0
   13.6056   -5.6360   21.5383 C   0  0  0  0  0  0  0  0  0  0  0  0
   14.4315   -6.8282   23.8595 F   0  0  0  0  0  0  0  0  0  0  0  0
   14.9073   -7.4532   22.7190 C   0  0  0  0  0  0  0  0  0  0  0  0
   14.5807   -8.7957   22.7776 F   0  0  0  0  0  0  0  0  0  0  0  0
   16.2837   -7.3233   22.6814 F   0  0  0  0  0  0  0  0  0  0  0  0
   16.4631   -9.6261   15.6635 C   0  0  0  0  0  0  0  0  0  0  0  0
   17.1261   -9.2259   14.3501 C   0  0  0  0  0  0  0  0  0  0  0  0
   16.1781   -9.4036   13.1745 C   0  0  0  0  0  0  0  0  0  0  0  0
   16.7042  -10.4703   12.2254 C   0  0  0  0  0  0  0  0  0  0  0  0
   16.8934   -9.9159   10.8898 N   0  0  0  0  0  0  0  0  0  0  0  0
   15.9209  -10.1422    9.9653 C   0  0  0  0  0  0  0  0  0  0  0  0
   16.0439   -9.6648    8.6999 N   0  0  0  0  0  0  0  0  0  0  0  0
   17.1383   -8.9567    8.3261 C   0  0  0  0  0  0  0  0  0  0  0  0
   17.2472   -8.4718    7.0196 C   0  0  0  0  0  0  0  0  0  0  0  0
   18.3784   -7.7452    6.6353 C   0  0  0  0  0  0  0  0  0  0  0  0
   19.4033   -7.5027    7.5554 C   0  0  0  0  0  0  0  0  0  0  0  0
   19.3006   -7.9854    8.8635 C   0  0  0  0  0  0  0  0  0  0  0  0
   18.1684   -8.7139    9.2563 C   0  0  0  0  0  0  0  0  0  0  0  0
   18.0232   -9.2178   10.5568 C   0  0  0  0  0  0  0  0  0  0  0  0
   18.9326   -9.0307   11.4133 O   0  0  0  0  0  0  0  0  0  0  0  0
 12 13  1  0  0  0
 13 14  1  0  0  0
 13 15  1  0  0  0
 13  6  1  0  0  0
  6  7  2  0  0  0
  7  8  1  0  0  0
  8  2  1  0  0  0
  8  9  2  0  0  0
  2  3  1  0  0  0
  3  4  2  0  0  0
  3  1  1  0  0  0
  1 16  1  0  0  0
 16 17  1  0  0  0
 17 18  1  0  0  0
 18 19  1  0  0  0
 19 20  1  0  0  0
 20 21  1  0  0  0
 21 22  2  0  0  0
 22 23  1  0  0  0
 23 24  2  0  0  0
 24 25  1  0  0  0
 25 26  2  0  0  0
 26 27  1  0  0  0
 27 28  2  0  0  0
 28 29  1  0  0  0
 28 23  1  0  0  0
 29 30  2  0  0  0
 29 20  1  0  0  0
  9 10  1  0  0  0
 10 11  2  0  0  0
 11  6  1  0  0  0
  2  5  1  0  0  0
M  END
>  <minimizedAffinity>
-7.58645

>  <minimizedRMSD>
2.31238

$$$$
ChemDiv-C679-5355 MCULE-1290556328 MolPort-007-656-075 PubChem-46258454 ZINC000021369031 ZINC21369031


 24 26  0  0  0  0  0  0  0  0999 V2000
   16.0616   -9.3010   12.7913 O   0  0  0  0  0  0  0  0  0  0  0  0
   16.9814   -9.2414   16.3749 C   0  0  0  0  0  0  0  0  0  0  0  0
   16.2605   -9.0837   15.1813 C   0  0  0  0  0  0  0  0  0  0  0  0
   16.8118   -9.4748   13.9571 C   0  0  0  0  0  0  0  0  0  0  0  0
   18.1005  -10.0304   13.9282 C   0  0  0  0  0  0  0  0  0  0  0  0
   18.8237  -10.1903   15.1125 C   0  0  0  0  0  0  0  0  0  0  0  0
   18.2645   -9.7966   16.3310 C   0  0  0  0  0  0  0  0  0  0  0  0
   14.9335   -7.6488   19.2655 C   0  0  0  0  0  0  0  0  0  0  0  0
   15.3603   -7.9377   17.8720 C   0  0  0  0  0  0  0  0  0  0  0  0
   14.7643   -7.3766   16.9152 O   0  0  0  0  0  0  0  0  0  0  0  0
   16.4422   -8.8497   17.6449 N   0  0  0  0  0  0  0  0  0  0  0  0
   16.8583   -9.2485   18.4431 H   0  0  0  0  0  0  0  0  0  0  0  0
   15.9676  -10.2987   11.7830 C   0  0  0  0  0  0  0  0  0  0  0  0
   16.6651   -9.8337   10.5552 C   0  0  0  0  0  0  0  0  0  0  0  0
   16.1856  -10.2129    9.2944 C   0  0  0  0  0  0  0  0  0  0  0  0
   16.8413   -9.7416    8.1521 C   0  0  0  0  0  0  0  0  0  0  0  0
   16.4210  -10.0794    7.0135 O   0  0  0  0  0  0  0  0  0  0  0  0
   17.9260   -8.9207    8.2984 N   0  0  0  0  0  0  0  0  0  0  0  0
   18.6988   -8.3557    7.3188 C   0  0  0  0  0  0  0  0  0  0  0  0
   18.4733   -8.5574    5.8577 C   0  0  0  0  0  0  0  0  0  0  0  0
   19.7460   -7.5516    7.7790 C   0  0  0  0  0  0  0  0  0  0  0  0
   19.6855   -7.5609    9.4705 S   0  0  0  0  0  0  0  0  0  0  0  0
   18.3543   -8.5701    9.5314 C   0  0  0  0  0  0  0  0  0  0  0  0
   17.7421   -9.0084   10.6584 N   0  0  0  0  0  0  0  0  0  0  0  0
  8  9  1  0  0  0
  9 10  2  0  0  0
  9 11  1  0  0  0
 11  2  1  0  0  0
  2  3  2  0  0  0
  3  4  1  0  0  0
  4  1  1  0  0  0
  4  5  2  0  0  0
  1 13  1  0  0  0
 13 14  1  0  0  0
 14 15  2  0  0  0
 15 16  1  0  0  0
 16 17  2  0  0  0
 16 18  1  0  0  0
 18 19  1  0  0  0
 19 20  1  0  0  0
 19 21  2  0  0  0
 21 22  1  0  0  0
 22 23  1  0  0  0
 23 24  2  0  0  0
 23 18  1  0  0  0
 24 14  1  0  0  0
  5  6  1  0  0  0
  6  7  2  0  0  0
  7  2  1  0  0  0
 11 12  1  0  0  0
M  END
>  <minimizedAffinity>
-7.58205

>  <minimizedRMSD>
1.22094

$$$$
ChemDiv-F172-0378 MCULE-9837714903 MolPort-010-761-906 PubChem-50764241 ZINC000045900803 ZINC45900803


 36 39  0  0  0  0  0  0  0  0999 V2000
   17.4721  -10.2715   14.2185 C   0  0  0  0  0  0  0  0  0  0  0  0
   16.9305   -9.5488   15.2881 C   0  0  0  0  0  0  0  0  0  0  0  0
   16.9855  -10.0368   16.5999 C   0  0  0  0  0  0  0  0  0  0  0  0
   17.5908  -11.2694   16.8445 C   0  0  0  0  0  0  0  0  0  0  0  0
   18.1339  -12.0077   15.7933 C   0  0  0  0  0  0  0  0  0  0  0  0
   18.0824  -11.5263   14.4819 C   0  0  0  0  0  0  0  0  0  0  0  0
   18.6741  -12.3898   13.4220 C   0  0  0  0  0  0  0  0  0  0  0  0
   16.4365   -9.3080   17.7049 N   0  0  0  0  0  0  0  0  0  0  0  0
   15.4936   -8.2311   17.6438 C   0  0  0  0  0  0  0  0  0  0  0  0
   15.0633   -7.8012   16.5414 O   0  0  0  0  0  0  0  0  0  0  0  0
   16.7398   -9.5761   18.6023 H   0  0  0  0  0  0  0  0  0  0  0  0
   15.0378   -7.5871   18.9087 C   0  0  0  0  0  0  0  0  0  0  0  0
   16.0153   -6.6633   19.3781 O   0  0  0  0  0  0  0  0  0  0  0  0
   16.4483   -6.6132   20.7083 C   0  0  0  0  0  0  0  0  0  0  0  0
   17.8102   -6.4334   20.9714 C   0  0  0  0  0  0  0  0  0  0  0  0
   18.2726   -6.3724   22.2890 C   0  0  0  0  0  0  0  0  0  0  0  0
   17.3745   -6.4983   23.3528 C   0  0  0  0  0  0  0  0  0  0  0  0
   16.0084   -6.6969   23.1058 C   0  0  0  0  0  0  0  0  0  0  0  0
   15.5499   -6.7327   21.7815 C   0  0  0  0  0  0  0  0  0  0  0  0
   15.0345   -6.7930   24.2446 C   0  0  0  0  0  0  0  0  0  0  0  0
   15.1295   -5.6555   25.0258 F   0  0  0  0  0  0  0  0  0  0  0  0
   15.3107   -7.9025   25.0258 F   0  0  0  0  0  0  0  0  0  0  0  0
   13.7424   -6.9046   23.7612 F   0  0  0  0  0  0  0  0  0  0  0  0
   17.3624   -9.6882   12.9461 O   0  0  0  0  0  0  0  0  0  0  0  0
   18.4179   -9.0537   12.2370 C   0  0  0  0  0  0  0  0  0  0  0  0
   18.8952   -7.9549    5.0320 C   0  0  0  0  0  0  0  0  0  0  0  0
   18.6092   -8.3046    6.4482 C   0  0  0  0  0  0  0  0  0  0  0  0
   19.3618   -7.8794    7.5485 C   0  0  0  0  0  0  0  0  0  0  0  0
   18.6722   -8.4837    8.5825 C   0  0  0  0  0  0  0  0  0  0  0  0
   18.9503   -8.4303    9.9081 N   0  0  0  0  0  0  0  0  0  0  0  0
   18.1445   -9.1110   10.7771 C   0  0  0  0  0  0  0  0  0  0  0  0
   17.0376   -9.8446   10.3031 C   0  0  0  0  0  0  0  0  0  0  0  0
   16.7924   -9.8711    8.9248 C   0  0  0  0  0  0  0  0  0  0  0  0
   15.8207  -10.5168    8.4523 O   0  0  0  0  0  0  0  0  0  0  0  0
   17.6320   -9.1810    8.1166 N   0  0  0  0  0  0  0  0  0  0  0  0
   17.6024   -9.0672    6.8282 O   0  0  0  0  0  0  0  0  0  0  0  0
 26 27  1  0  0  0
 27 28  2  0  0  0
 28 29  1  0  0  0
 29 30  2  0  0  0
 30 31  1  0  0  0
 31 25  1  0  0  0
 31 32  2  0  0  0
 25 24  1  0  0  0
 24  1  1  0  0  0
  1  2  2  0  0  0
  2  3  1  0  0  0
  3  8  1  0  0  0
  3  4  2  0  0  0
  8  9  1  0  0  0
  9 10  2  0  0  0
  9 12  1  0  0  0
 12 13  1  0  0  0
 13 14  1  0  0  0
 14 15  2  0  0  0
 15 16  1  0  0  0
 16 17  2  0  0  0
 17 18  1  0  0  0
 18 19  2  0  0  0
 18 20  1  0  0  0
 19 14  1  0  0  0
 20 21  1  0  0  0
 20 22  1  0  0  0
 20 23  1  0  0  0
  4  5  1  0  0  0
  5  6  2  0  0  0
  6  7  1  0  0  0
  6  1  1  0  0  0
 32 33  1  0  0  0
 33 34  2  0  0  0
 33 35  1  0  0  0
 35 36  1  0  0  0
 35 29  1  0  0  0
 36 27  1  0  0  0
  8 11  1  0  0  0
M  END
>  <minimizedAffinity>
-7.57046

>  <minimizedRMSD>
1.92899

$$$$
ChemDiv-C679-6505 MCULE-4171610380 MolPort-007-656-256 PubChem-46258535 ZINC000013368529


 32 35  0  0  0  0  0  0  0  0999 V2000
   17.3533   -9.9350   15.0747 C   0  0  0  0  0  0  0  0  0  0  0  0
   18.0258  -11.0441   15.6114 C   0  0  0  0  0  0  0  0  0  0  0  0
   17.9630  -11.3088   16.9815 C   0  0  0  0  0  0  0  0  0  0  0  0
   17.2291  -10.4680   17.8223 C   0  0  0  0  0  0  0  0  0  0  0  0
   16.5540   -9.3592   17.3015 C   0  0  0  0  0  0  0  0  0  0  0  0
   16.6214   -9.0995   15.9242 C   0  0  0  0  0  0  0  0  0  0  0  0
   15.8119   -8.5206   18.1972 N   0  0  0  0  0  0  0  0  0  0  0  0
   14.6634   -7.7204   17.8764 C   0  0  0  0  0  0  0  0  0  0  0  0
   14.2010   -7.7024   16.7031 O   0  0  0  0  0  0  0  0  0  0  0  0
   16.1227   -8.4902   19.1309 H   0  0  0  0  0  0  0  0  0  0  0  0
   14.0195   -6.9129   18.9276 C   0  0  0  0  0  0  0  0  0  0  0  0
   12.9190   -6.0974   18.6234 C   0  0  0  0  0  0  0  0  0  0  0  0
   12.3090   -5.3318   19.6214 C   0  0  0  0  0  0  0  0  0  0  0  0
   12.7947   -5.3760   20.9309 C   0  0  0  0  0  0  0  0  0  0  0  0
   13.8902   -6.1855   21.2429 C   0  0  0  0  0  0  0  0  0  0  0  0
   14.5004   -6.9511   20.2448 C   0  0  0  0  0  0  0  0  0  0  0  0
   12.1462   -4.5623   21.9918 C   0  0  0  0  0  0  0  0  0  0  0  0
   17.3953   -9.6418   13.7094 O   0  0  0  0  0  0  0  0  0  0  0  0
   18.1854  -10.3829   12.7889 C   0  0  0  0  0  0  0  0  0  0  0  0
   17.3781   -9.0094    8.8851 N   0  0  0  0  0  0  0  0  0  0  0  0
   17.2665   -8.5035    7.6592 N   0  0  0  0  0  0  0  0  0  0  0  0
   18.3698   -7.8058    7.2951 C   0  0  0  0  0  0  0  0  0  0  0  0
   19.5547   -7.8042    8.5105 S   0  0  0  0  0  0  0  0  0  0  0  0
   18.5510   -8.7281    9.4906 C   0  0  0  0  0  0  0  0  0  0  0  0
   18.8308   -9.1672   10.7419 N   0  0  0  0  0  0  0  0  0  0  0  0
   17.9059   -9.9178   11.4048 C   0  0  0  0  0  0  0  0  0  0  0  0
   16.6730  -10.2193   10.8030 C   0  0  0  0  0  0  0  0  0  0  0  0
   16.4229   -9.7476    9.5097 C   0  0  0  0  0  0  0  0  0  0  0  0
   15.3290  -10.0045    8.9404 O   0  0  0  0  0  0  0  0  0  0  0  0
   18.5280   -7.1597    5.9609 C   0  0  0  0  0  0  0  0  0  0  0  0
   19.5397   -7.9116    5.1113 C   0  0  0  0  0  0  0  0  0  0  0  0
   20.8245   -7.1149    4.9821 C   0  0  0  0  0  0  0  0  0  0  0  0
 20 21  1  0  0  0
 21 22  2  0  0  0
 22 23  1  0  0  0
 23 24  1  0  0  0
 24 25  2  0  0  0
 25 26  1  0  0  0
 26 19  1  0  0  0
 19 18  1  0  0  0
 18  1  1  0  0  0
  1  2  2  0  0  0
  2  3  1  0  0  0
  3  4  2  0  0  0
  4  5  1  0  0  0
  5  6  2  0  0  0
  5  7  1  0  0  0
  7  8  1  0  0  0
  8  9  2  0  0  0
  8 11  1  0  0  0
 11 12  2  0  0  0
 12 13  1  0  0  0
 13 14  2  0  0  0
 14 15  1  0  0  0
 15 16  2  0  0  0
 14 17  1  0  0  0
 26 27  2  0  0  0
 27 28  1  0  0  0
 28 29  2  0  0  0
 22 30  1  0  0  0
 30 31  1  0  0  0
 31 32  1  0  0  0
 24 20  1  0  0  0
  6  1  1  0  0  0
 16 11  1  0  0  0
 28 20  1  0  0  0
  7 10  1  0  0  0
M  END
>  <minimizedAffinity>
-7.56880

>  <minimizedRMSD>
0.85451

$$$$
ChemDiv-G756-0214 MCULE-8878831945 MolPort-007-879-032 PubChem-46355924 ZINC000021099604 ZINC21099604


 33 36  0  0  0  0  0  0  0  0999 V2000
   17.0065   -9.4331   17.0226 C   0  0  0  0  0  0  0  0  0  0  0  0
   17.0225   -9.0971   15.6601 C   0  0  0  0  0  0  0  0  0  0  0  0
   17.3912  -10.0406   14.6960 C   0  0  0  0  0  0  0  0  0  0  0  0
   17.7490  -11.3359   15.1014 C   0  0  0  0  0  0  0  0  0  0  0  0
   17.7373  -11.6767   16.4560 C   0  0  0  0  0  0  0  0  0  0  0  0
   17.3678  -10.7269   17.4121 C   0  0  0  0  0  0  0  0  0  0  0  0
   15.1489   -7.0377   19.3637 N   0  0  0  0  0  0  0  0  0  0  0  0
   15.3145   -8.0263   18.3394 C   0  0  0  0  0  0  0  0  0  0  0  0
   14.3163   -8.4833   17.7199 O   0  0  0  0  0  0  0  0  0  0  0  0
   16.6374   -8.4855   18.0341 N   0  0  0  0  0  0  0  0  0  0  0  0
   15.9711   -6.7003   19.7875 H   0  0  0  0  0  0  0  0  0  0  0  0
   17.3695   -8.1112   18.5754 H   0  0  0  0  0  0  0  0  0  0  0  0
   11.5052   -6.1795   19.6735 C   0  0  0  0  0  0  0  0  0  0  0  0
   11.5270   -5.3868   20.8247 C   0  0  0  0  0  0  0  0  0  0  0  0
   12.7352   -5.1472   21.4842 C   0  0  0  0  0  0  0  0  0  0  0  0
   13.9222   -5.6979   20.9912 C   0  0  0  0  0  0  0  0  0  0  0  0
   13.9111   -6.4881   19.8364 C   0  0  0  0  0  0  0  0  0  0  0  0
   12.6939   -6.7256   19.1798 C   0  0  0  0  0  0  0  0  0  0  0  0
   10.6588   -7.8568   17.8652 C   0  0  0  0  0  0  0  0  0  0  0  0
    9.9625   -6.4800   18.8222 S   0  0  0  0  0  0  0  0  0  0  0  0
   17.3950   -9.6658   13.3501 O   0  0  0  0  0  0  0  0  0  0  0  0
   18.4640   -9.9821   12.4681 C   0  0  0  0  0  0  0  0  0  0  0  0
   18.0887   -9.6131   11.0777 C   0  0  0  0  0  0  0  0  0  0  0  0
   16.8842  -10.0574   10.5401 C   0  0  0  0  0  0  0  0  0  0  0  0
   16.5453   -9.6740    9.2434 C   0  0  0  0  0  0  0  0  0  0  0  0
   15.4558  -10.0790    8.7524 O   0  0  0  0  0  0  0  0  0  0  0  0
   17.3869   -8.8698    8.5221 N   0  0  0  0  0  0  0  0  0  0  0  0
   17.0540   -8.4954    7.2505 C   0  0  0  0  0  0  0  0  0  0  0  0
   17.8986   -7.6726    6.5030 C   0  0  0  0  0  0  0  0  0  0  0  0
   19.0945   -7.2306    7.0654 C   0  0  0  0  0  0  0  0  0  0  0  0
   19.4339   -7.6127    8.3620 C   0  0  0  0  0  0  0  0  0  0  0  0
   18.5679   -8.4373    9.0843 C   0  0  0  0  0  0  0  0  0  0  0  0
   18.9010   -8.8087   10.3473 N   0  0  0  0  0  0  0  0  0  0  0  0
 19 20  1  0  0  0
 20 13  1  0  0  0
 13 14  2  0  0  0
 14 15  1  0  0  0
 15 16  2  0  0  0
 16 17  1  0  0  0
 17  7  1  0  0  0
 17 18  2  0  0  0
  7  8  1  0  0  0
  8  9  2  0  0  0
  8 10  1  0  0  0
 10  1  1  0  0  0
  1  2  2  0  0  0
  2  3  1  0  0  0
  3 21  1  0  0  0
  3  4  2  0  0  0
 21 22  1  0  0  0
 22 23  1  0  0  0
 23 24  2  0  0  0
 24 25  1  0  0  0
 25 26  2  0  0  0
 25 27  1  0  0  0
 27 28  1  0  0  0
 28 29  2  0  0  0
 29 30  1  0  0  0
 30 31  2  0  0  0
 31 32  1  0  0  0
 32 33  2  0  0  0
 32 27  1  0  0  0
 33 23  1  0  0  0
  4  5  1  0  0  0
  5  6  2  0  0  0
  6  1  1  0  0  0
 18 13  1  0  0  0
  7 11  1  0  0  0
 10 12  1  0  0  0
M  END
>  <minimizedAffinity>
-7.56411

>  <minimizedRMSD>
2.01102

$$$$
ChemDiv-G756-0651 MCULE-3017060764 MolPort-007-879-312 PubChem-46356155 ZINC000021100009 ZINC21100009


 33 36  0  0  0  0  0  0  0  0999 V2000
   17.6385  -10.6446   14.2522 C   0  0  0  0  0  0  0  0  0  0  0  0
   18.1300  -11.8307   14.8043 C   0  0  0  0  0  0  0  0  0  0  0  0
   18.1553  -12.0046   16.1905 C   0  0  0  0  0  0  0  0  0  0  0  0
   17.6890  -10.9909   17.0320 C   0  0  0  0  0  0  0  0  0  0  0  0
   17.1970   -9.7967   16.4960 C   0  0  0  0  0  0  0  0  0  0  0  0
   17.1725   -9.6296   15.1034 C   0  0  0  0  0  0  0  0  0  0  0  0
   16.7215   -8.7814   17.3910 N   0  0  0  0  0  0  0  0  0  0  0  0
   15.3564   -8.4082   17.6189 C   0  0  0  0  0  0  0  0  0  0  0  0
   14.4233   -8.9542   16.9700 O   0  0  0  0  0  0  0  0  0  0  0  0
   15.0734   -7.3997   18.5970 N   0  0  0  0  0  0  0  0  0  0  0  0
   17.4042   -8.2895   17.9022 H   0  0  0  0  0  0  0  0  0  0  0  0
   15.8453   -7.0263   19.0807 H   0  0  0  0  0  0  0  0  0  0  0  0
   13.7837   -6.8772   18.9453 C   0  0  0  0  0  0  0  0  0  0  0  0
   13.5249   -6.5612   20.2838 C   0  0  0  0  0  0  0  0  0  0  0  0
   12.2802   -6.0466   20.6619 C   0  0  0  0  0  0  0  0  0  0  0  0
   11.2859   -5.8432   19.7005 C   0  0  0  0  0  0  0  0  0  0  0  0
   10.0796   -5.3459   20.0668 F   0  0  0  0  0  0  0  0  0  0  0  0
   11.5360   -6.1547   18.3614 C   0  0  0  0  0  0  0  0  0  0  0  0
   12.7803   -6.6698   17.9849 C   0  0  0  0  0  0  0  0  0  0  0  0
   17.6220  -10.5003   12.8629 O   0  0  0  0  0  0  0  0  0  0  0  0
   16.4654  -10.0813   12.1500 C   0  0  0  0  0  0  0  0  0  0  0  0
   20.2847   -7.3812   10.1386 C   0  0  0  0  0  0  0  0  0  0  0  0
   19.4609   -7.9008    9.0095 C   0  0  0  0  0  0  0  0  0  0  0  0
   19.8332   -7.5946    7.7019 C   0  0  0  0  0  0  0  0  0  0  0  0
   19.0761   -8.0672    6.6330 C   0  0  0  0  0  0  0  0  0  0  0  0
   17.9462   -8.8455    6.8865 C   0  0  0  0  0  0  0  0  0  0  0  0
   17.5753   -9.1483    8.1664 N   0  0  0  0  0  0  0  0  0  0  0  0
   16.4604   -9.9113    8.3904 C   0  0  0  0  0  0  0  0  0  0  0  0
   15.7655  -10.3420    7.4296 O   0  0  0  0  0  0  0  0  0  0  0  0
   16.0751  -10.2247    9.6923 C   0  0  0  0  0  0  0  0  0  0  0  0
   16.8367   -9.7420   10.7510 C   0  0  0  0  0  0  0  0  0  0  0  0
   17.9401   -8.9931   10.5048 N   0  0  0  0  0  0  0  0  0  0  0  0
   18.3175   -8.6873    9.2334 C   0  0  0  0  0  0  0  0  0  0  0  0
 22 23  1  0  0  0
 23 24  2  0  0  0
 24 25  1  0  0  0
 25 26  2  0  0  0
 26 27  1  0  0  0
 27 28  1  0  0  0
 28 29  2  0  0  0
 28 30  1  0  0  0
 30 31  2  0  0  0
 31 21  1  0  0  0
 21 20  1  0  0  0
 20  1  1  0  0  0
  1  2  2  0  0  0
  2  3  1  0  0  0
  3  4  2  0  0  0
  4  5  1  0  0  0
  5  7  1  0  0  0
  7  8  1  0  0  0
  8  9  2  0  0  0
  8 10  1  0  0  0
 10 13  1  0  0  0
 13 14  2  0  0  0
 14 15  1  0  0  0
 15 16  2  0  0  0
 16 17  1  0  0  0
 16 18  1  0  0  0
 18 19  2  0  0  0
  5  6  2  0  0  0
 31 32  1  0  0  0
 32 33  2  0  0  0
 33 23  1  0  0  0
 33 27  1  0  0  0
  6  1  1  0  0  0
 19 13  1  0  0  0
  7 11  1  0  0  0
 10 12  1  0  0  0
M  END
>  <minimizedAffinity>
-7.56105

>  <minimizedRMSD>
1.15885

$$$$
ChemDiv-C679-4187 MCULE-3412531903 MolPort-007-655-799 PubChem-20874217 ZINC000013367976 ZINC13367976


 28 30  0  0  0  0  0  0  0  0999 V2000
   17.9675   -9.8528   12.9873 O   0  0  0  0  0  0  0  0  0  0  0  0
   17.0259   -9.9181   16.5651 C   0  0  0  0  0  0  0  0  0  0  0  0
   17.1893   -9.4934   15.2377 C   0  0  0  0  0  0  0  0  0  0  0  0
   17.8244  -10.3125   14.2988 C   0  0  0  0  0  0  0  0  0  0  0  0
   18.3012  -11.5721   14.6944 C   0  0  0  0  0  0  0  0  0  0  0  0
   18.1417  -12.0013   16.0141 C   0  0  0  0  0  0  0  0  0  0  0  0
   17.5058  -11.1758   16.9450 C   0  0  0  0  0  0  0  0  0  0  0  0
   15.4227   -8.0551   17.3086 C   0  0  0  0  0  0  0  0  0  0  0  0
   15.0751   -7.7607   16.1336 O   0  0  0  0  0  0  0  0  0  0  0  0
   16.3783   -9.1008   17.5496 N   0  0  0  0  0  0  0  0  0  0  0  0
   16.6133   -9.2746   18.4898 H   0  0  0  0  0  0  0  0  0  0  0  0
   15.1174   -7.9257   19.7990 C   0  0  0  0  0  0  0  0  0  0  0  0
   14.8255   -7.2872   18.4514 C   0  0  0  0  0  0  0  0  0  0  0  0
   13.3252   -7.1615   18.2698 C   0  0  0  0  0  0  0  0  0  0  0  0
   16.9052   -9.2402   12.2683 C   0  0  0  0  0  0  0  0  0  0  0  0
   17.1999   -9.2822   10.8118 C   0  0  0  0  0  0  0  0  0  0  0  0
   16.4541  -10.1270    9.9731 C   0  0  0  0  0  0  0  0  0  0  0  0
   16.7319  -10.1289    8.6017 C   0  0  0  0  0  0  0  0  0  0  0  0
   16.0837  -10.8777    7.8235 O   0  0  0  0  0  0  0  0  0  0  0  0
   17.7084   -9.3097    8.1296 N   0  0  0  0  0  0  0  0  0  0  0  0
   18.0681   -9.2144    6.8520 N   0  0  0  0  0  0  0  0  0  0  0  0
   19.0671   -8.3142    6.6694 C   0  0  0  0  0  0  0  0  0  0  0  0
   19.5445   -7.5903    8.1281 S   0  0  0  0  0  0  0  0  0  0  0  0
   18.4040   -8.5023    8.9575 C   0  0  0  0  0  0  0  0  0  0  0  0
   18.1642   -8.4714   10.2912 N   0  0  0  0  0  0  0  0  0  0  0  0
   19.6713   -7.9982    5.3423 C   0  0  0  0  0  0  0  0  0  0  0  0
   18.6798   -8.2788    4.2302 C   0  0  0  0  0  0  0  0  0  0  0  0
   20.1042   -6.5460    5.2915 C   0  0  0  0  0  0  0  0  0  0  0  0
 12 13  1  0  0  0
 13 14  1  0  0  0
 13  8  1  0  0  0
  8  9  2  0  0  0
  8 10  1  0  0  0
 10  2  1  0  0  0
  2  3  2  0  0  0
  3  4  1  0  0  0
  4  1  1  0  0  0
  4  5  2  0  0  0
  1 15  1  0  0  0
 15 16  1  0  0  0
 16 17  2  0  0  0
 17 18  1  0  0  0
 18 19  2  0  0  0
 18 20  1  0  0  0
 20 21  1  0  0  0
 21 22  2  0  0  0
 22 23  1  0  0  0
 22 26  1  0  0  0
 23 24  1  0  0  0
 24 25  2  0  0  0
 24 20  1  0  0  0
 25 16  1  0  0  0
 26 27  1  0  0  0
 26 28  1  0  0  0
  5  6  1  0  0  0
  6  7  2  0  0  0
  7  2  1  0  0  0
 10 11  1  0  0  0
M  END
>  <minimizedAffinity>
-7.55491

>  <minimizedRMSD>
0.98332

$$$$
ChemDiv-G756-0793 MCULE-3290565024 MolPort-007-879-407 PubChem-46356219 ZINC000033067913 ZINC33067913


 34 37  0  0  0  0  0  0  0  0999 V2000
   18.3638  -12.6176   14.4877 C   0  0  0  0  0  0  0  0  0  0  0  0
   17.8188  -11.5434   15.3644 C   0  0  0  0  0  0  0  0  0  0  0  0
   17.7889  -11.7960   16.7392 C   0  0  0  0  0  0  0  0  0  0  0  0
   17.2594  -10.8561   17.6240 C   0  0  0  0  0  0  0  0  0  0  0  0
   16.7463   -9.6497   17.1464 C   0  0  0  0  0  0  0  0  0  0  0  0
   16.7711   -9.3927   15.7694 C   0  0  0  0  0  0  0  0  0  0  0  0
   17.3067  -10.3174   14.8657 C   0  0  0  0  0  0  0  0  0  0  0  0
   16.2096   -8.7080   18.0848 N   0  0  0  0  0  0  0  0  0  0  0  0
   15.0939   -7.8324   17.8767 C   0  0  0  0  0  0  0  0  0  0  0  0
   14.4685   -7.8168   16.7837 O   0  0  0  0  0  0  0  0  0  0  0  0
   16.6529   -8.6574   18.9624 H   0  0  0  0  0  0  0  0  0  0  0  0
   14.6851   -6.9028   18.9621 C   0  0  0  0  0  0  0  0  0  0  0  0
   15.2124   -7.3557   20.2016 O   0  0  0  0  0  0  0  0  0  0  0  0
   14.7852   -6.8524   21.4328 C   0  0  0  0  0  0  0  0  0  0  0  0
   15.3748   -7.3407   22.6046 C   0  0  0  0  0  0  0  0  0  0  0  0
   14.9706   -6.8565   23.8523 C   0  0  0  0  0  0  0  0  0  0  0  0
   13.9749   -5.8782   23.9338 C   0  0  0  0  0  0  0  0  0  0  0  0
   13.4738   -5.2694   25.4970 Cl  0  0  0  0  0  0  0  0  0  0  0  0
   13.3811   -5.3848   22.7681 C   0  0  0  0  0  0  0  0  0  0  0  0
   13.7833   -5.8706   21.5204 C   0  0  0  0  0  0  0  0  0  0  0  0
   17.2863   -9.9604   13.5088 O   0  0  0  0  0  0  0  0  0  0  0  0
   18.3264  -10.2282   12.5783 C   0  0  0  0  0  0  0  0  0  0  0  0
   17.8906   -9.8247   11.2153 C   0  0  0  0  0  0  0  0  0  0  0  0
   16.6174  -10.1594   10.7666 C   0  0  0  0  0  0  0  0  0  0  0  0
   16.2243   -9.7485    9.4944 C   0  0  0  0  0  0  0  0  0  0  0  0
   15.0701  -10.0526    9.0861 O   0  0  0  0  0  0  0  0  0  0  0  0
   17.0811   -9.0240    8.7087 N   0  0  0  0  0  0  0  0  0  0  0  0
   16.6868   -8.6245    7.4627 C   0  0  0  0  0  0  0  0  0  0  0  0
   17.5380   -7.8804    6.6463 C   0  0  0  0  0  0  0  0  0  0  0  0
   18.8059   -7.5417    7.1118 C   0  0  0  0  0  0  0  0  0  0  0  0
   19.2148   -7.9471    8.3811 C   0  0  0  0  0  0  0  0  0  0  0  0
   20.5762   -7.5711    8.8588 C   0  0  0  0  0  0  0  0  0  0  0  0
   18.3355   -8.6981    9.1797 C   0  0  0  0  0  0  0  0  0  0  0  0
   18.7196   -9.1007   10.4220 N   0  0  0  0  0  0  0  0  0  0  0  0
  1  2  1  0  0  0
  2  3  2  0  0  0
  3  4  1  0  0  0
  4  5  2  0  0  0
  5  8  1  0  0  0
  5  6  1  0  0  0
  8  9  1  0  0  0
  9 10  2  0  0  0
  9 12  1  0  0  0
 12 13  1  0  0  0
 13 14  1  0  0  0
 14 15  2  0  0  0
 15 16  1  0  0  0
 16 17  2  0  0  0
 17 18  1  0  0  0
 17 19  1  0  0  0
 19 20  2  0  0  0
 20 14  1  0  0  0
  6  7  2  0  0  0
  7 21  1  0  0  0
  7  2  1  0  0  0
 21 22  1  0  0  0
 22 23  1  0  0  0
 23 24  2  0  0  0
 24 25  1  0  0  0
 25 26  2  0  0  0
 25 27  1  0  0  0
 27 28  1  0  0  0
 28 29  2  0  0  0
 29 30  1  0  0  0
 30 31  2  0  0  0
 31 32  1  0  0  0
 31 33  1  0  0  0
 33 34  2  0  0  0
 33 27  1  0  0  0
 34 23  1  0  0  0
  8 11  1  0  0  0
M  END
>  <minimizedAffinity>
-7.54896

>  <minimizedRMSD>
1.71517

$$$$
ChemDiv-G357-0250 MCULE-2521844638 MolPort-007-847-107 PubChem-20952961 ZINC000015771476 ZINC15771476


 28 30  0  0  0  0  0  0  0  0999 V2000
   17.3605   -9.1571   11.6660 C   0  0  0  0  0  0  0  0  0  0  0  0
   19.3841   -8.0454    6.0492 C   0  0  0  0  0  0  0  0  0  0  0  0
   18.3354   -8.8898    6.2192 N   0  0  0  0  0  0  0  0  0  0  0  0
   18.0145   -9.0364    7.5024 N   0  0  0  0  0  0  0  0  0  0  0  0
   18.7895   -8.3241    8.3470 C   0  0  0  0  0  0  0  0  0  0  0  0
   19.9579   -7.4395    7.5269 S   0  0  0  0  0  0  0  0  0  0  0  0
   18.5986   -8.3562    9.6884 N   0  0  0  0  0  0  0  0  0  0  0  0
   17.6018   -9.1333   10.1992 C   0  0  0  0  0  0  0  0  0  0  0  0
   16.7738   -9.8786    9.3437 C   0  0  0  0  0  0  0  0  0  0  0  0
   17.0034   -9.8182    7.9648 C   0  0  0  0  0  0  0  0  0  0  0  0
   16.2813  -10.4782    7.1712 O   0  0  0  0  0  0  0  0  0  0  0  0
   20.3929   -6.2383    4.7017 C   0  0  0  0  0  0  0  0  0  0  0  0
   19.9618   -7.6917    4.7199 C   0  0  0  0  0  0  0  0  0  0  0  0
   18.9476   -7.9403    3.6206 C   0  0  0  0  0  0  0  0  0  0  0  0
   18.2565  -10.0717   12.2802 O   0  0  0  0  0  0  0  0  0  0  0  0
   17.8800  -10.8524   13.3754 C   0  0  0  0  0  0  0  0  0  0  0  0
   17.9566  -12.1110   13.3156 O   0  0  0  0  0  0  0  0  0  0  0  0
   17.3933  -10.2009   14.6020 C   0  0  0  0  0  0  0  0  0  0  0  0
   16.7190   -8.9753   14.5267 C   0  0  0  0  0  0  0  0  0  0  0  0
   16.2553   -8.3528   15.6887 C   0  0  0  0  0  0  0  0  0  0  0  0
   16.4599   -8.9479   16.9423 C   0  0  0  0  0  0  0  0  0  0  0  0
   17.1331  -10.1715   17.0164 C   0  0  0  0  0  0  0  0  0  0  0  0
   17.5976  -10.7953   15.8549 C   0  0  0  0  0  0  0  0  0  0  0  0
   15.9984   -8.3397   18.1565 N   0  0  0  0  0  0  0  0  0  0  0  0
   14.7862   -7.5964   18.3360 C   0  0  0  0  0  0  0  0  0  0  0  0
   14.4677   -7.0377   19.6755 C   0  0  0  0  0  0  0  0  0  0  0  0
   13.9864   -7.4067   17.3821 O   0  0  0  0  0  0  0  0  0  0  0  0
   16.5738   -8.4435   18.9485 H   0  0  0  0  0  0  0  0  0  0  0  0
 12 13  1  0  0  0
 13 14  1  0  0  0
 13  2  1  0  0  0
  2  3  2  0  0  0
  3  4  1  0  0  0
  4  5  1  0  0  0
  5  6  1  0  0  0
  5  7  2  0  0  0
  6  2  1  0  0  0
  7  8  1  0  0  0
  8  1  1  0  0  0
  8  9  2  0  0  0
  1 15  1  0  0  0
 15 16  1  0  0  0
 16 17  2  0  0  0
 16 18  1  0  0  0
 18 19  2  0  0  0
 19 20  1  0  0  0
 20 21  2  0  0  0
 21 24  1  0  0  0
 21 22  1  0  0  0
 24 25  1  0  0  0
 25 26  1  0  0  0
 25 27  2  0  0  0
 22 23  2  0  0  0
 23 18  1  0  0  0
  9 10  1  0  0  0
 10 11  2  0  0  0
 10  4  1  0  0  0
 24 28  1  0  0  0
M  END
>  <minimizedAffinity>
-7.54509

>  <minimizedRMSD>
1.22779

$$$$
ChemDiv-G756-0792 MCULE-1142569005 MolPort-007-879-406 PubChem-46356218 ZINC000033067912 ZINC33067912


 34 37  0  0  0  0  0  0  0  0999 V2000
   18.4446  -12.6309   14.1109 C   0  0  0  0  0  0  0  0  0  0  0  0
   17.9145  -11.6005   15.0473 C   0  0  0  0  0  0  0  0  0  0  0  0
   18.0415  -11.8579   16.4149 C   0  0  0  0  0  0  0  0  0  0  0  0
   17.5421  -10.9606   17.3588 C   0  0  0  0  0  0  0  0  0  0  0  0
   16.9082   -9.7879   16.9480 C   0  0  0  0  0  0  0  0  0  0  0  0
   16.7729   -9.5271   15.5785 C   0  0  0  0  0  0  0  0  0  0  0  0
   17.2704  -10.4116   14.6150 C   0  0  0  0  0  0  0  0  0  0  0  0
   16.3914   -8.8960   17.9439 N   0  0  0  0  0  0  0  0  0  0  0  0
   15.3251   -7.9546   17.7769 C   0  0  0  0  0  0  0  0  0  0  0  0
   14.7833   -7.7735   16.6547 O   0  0  0  0  0  0  0  0  0  0  0  0
   16.8121   -8.9344   18.8332 H   0  0  0  0  0  0  0  0  0  0  0  0
   14.8410   -7.1860   18.9579 C   0  0  0  0  0  0  0  0  0  0  0  0
   13.4825   -7.5110   19.2338 O   0  0  0  0  0  0  0  0  0  0  0  0
   12.5385   -6.5673   19.6616 C   0  0  0  0  0  0  0  0  0  0  0  0
   11.2330   -6.6103   19.1473 C   0  0  0  0  0  0  0  0  0  0  0  0
   10.7718   -7.8278   17.9711 Cl  0  0  0  0  0  0  0  0  0  0  0  0
   10.2834   -5.6710   19.5620 C   0  0  0  0  0  0  0  0  0  0  0  0
   10.6278   -4.6863   20.4905 C   0  0  0  0  0  0  0  0  0  0  0  0
   11.9219   -4.6401   21.0117 C   0  0  0  0  0  0  0  0  0  0  0  0
   12.8727   -5.5772   20.6005 C   0  0  0  0  0  0  0  0  0  0  0  0
   17.0811  -10.0534   13.2714 O   0  0  0  0  0  0  0  0  0  0  0  0
   17.1822  -10.9405   12.1672 C   0  0  0  0  0  0  0  0  0  0  0  0
   17.2132  -10.1708   10.8934 C   0  0  0  0  0  0  0  0  0  0  0  0
   16.1292  -10.2255   10.0251 C   0  0  0  0  0  0  0  0  0  0  0  0
   16.1888   -9.5178    8.8262 C   0  0  0  0  0  0  0  0  0  0  0  0
   15.2037   -9.5666    8.0388 O   0  0  0  0  0  0  0  0  0  0  0  0
   17.3040   -8.7885    8.5142 N   0  0  0  0  0  0  0  0  0  0  0  0
   17.3573   -8.0988    7.3369 C   0  0  0  0  0  0  0  0  0  0  0  0
   18.4814   -7.3466    6.9995 C   0  0  0  0  0  0  0  0  0  0  0  0
   19.5626   -7.3053    7.8754 C   0  0  0  0  0  0  0  0  0  0  0  0
   19.5150   -8.0076    9.0766 C   0  0  0  0  0  0  0  0  0  0  0  0
   20.6861   -7.9556    9.9971 C   0  0  0  0  0  0  0  0  0  0  0  0
   18.3680   -8.7528    9.3905 C   0  0  0  0  0  0  0  0  0  0  0  0
   18.3071   -9.4413   10.5619 N   0  0  0  0  0  0  0  0  0  0  0  0
  1  2  1  0  0  0
  2  3  2  0  0  0
  3  4  1  0  0  0
  4  5  2  0  0  0
  5  8  1  0  0  0
  5  6  1  0  0  0
  8  9  1  0  0  0
  9 10  2  0  0  0
  9 12  1  0  0  0
 12 13  1  0  0  0
 13 14  1  0  0  0
 14 15  2  0  0  0
 15 16  1  0  0  0
 15 17  1  0  0  0
 17 18  2  0  0  0
 18 19  1  0  0  0
 19 20  2  0  0  0
 20 14  1  0  0  0
  6  7  2  0  0  0
  7 21  1  0  0  0
  7  2  1  0  0  0
 21 22  1  0  0  0
 22 23  1  0  0  0
 23 24  2  0  0  0
 24 25  1  0  0  0
 25 26  2  0  0  0
 25 27  1  0  0  0
 27 28  1  0  0  0
 28 29  2  0  0  0
 29 30  1  0  0  0
 30 31  2  0  0  0
 31 32  1  0  0  0
 31 33  1  0  0  0
 33 34  2  0  0  0
 33 27  1  0  0  0
 34 23  1  0  0  0
  8 11  1  0  0  0
M  END
>  <minimizedAffinity>
-7.54479

>  <minimizedRMSD>
1.86346

$$$$
ChemDiv-G756-0808 MCULE-1350357753 MolPort-007-879-413 PubChem-46356225 ZINC000033067919 ZINC33067919


 32 35  0  0  0  0  0  0  0  0999 V2000
   18.2858  -12.0015   15.2208 C   0  0  0  0  0  0  0  0  0  0  0  0
   17.5359  -10.9013   15.8901 C   0  0  0  0  0  0  0  0  0  0  0  0
   17.4208  -10.9687   17.2820 C   0  0  0  0  0  0  0  0  0  0  0  0
   16.7423   -9.9757   17.9891 C   0  0  0  0  0  0  0  0  0  0  0  0
   16.1684   -8.8977   17.3148 C   0  0  0  0  0  0  0  0  0  0  0  0
   16.2807   -8.8249   15.9203 C   0  0  0  0  0  0  0  0  0  0  0  0
   16.9548   -9.8105   15.1901 C   0  0  0  0  0  0  0  0  0  0  0  0
   15.4782   -7.8968   18.0749 N   0  0  0  0  0  0  0  0  0  0  0  0
   14.0568   -7.7540   18.2218 C   0  0  0  0  0  0  0  0  0  0  0  0
   13.2682   -8.5473   17.6393 O   0  0  0  0  0  0  0  0  0  0  0  0
   16.0378   -7.2379   18.5459 H   0  0  0  0  0  0  0  0  0  0  0  0
   13.5151   -6.6703   19.0610 C   0  0  0  0  0  0  0  0  0  0  0  0
   12.4943   -5.8384   18.5763 C   0  0  0  0  0  0  0  0  0  0  0  0
   11.9804   -4.8114   19.3737 C   0  0  0  0  0  0  0  0  0  0  0  0
   10.9953   -4.0129   18.8979 F   0  0  0  0  0  0  0  0  0  0  0  0
   12.4833   -4.6085   20.6615 C   0  0  0  0  0  0  0  0  0  0  0  0
   13.4998   -5.4323   21.1523 C   0  0  0  0  0  0  0  0  0  0  0  0
   14.0137   -6.4593   20.3549 C   0  0  0  0  0  0  0  0  0  0  0  0
   17.0051   -9.6366   13.7975 O   0  0  0  0  0  0  0  0  0  0  0  0
   17.8410  -10.3595   12.9052 C   0  0  0  0  0  0  0  0  0  0  0  0
   17.5476   -9.9511   11.5063 C   0  0  0  0  0  0  0  0  0  0  0  0
   16.3196  -10.2636   10.9332 C   0  0  0  0  0  0  0  0  0  0  0  0
   16.0592   -9.8415    9.6311 C   0  0  0  0  0  0  0  0  0  0  0  0
   14.9465  -10.1277    9.1090 O   0  0  0  0  0  0  0  0  0  0  0  0
   16.9998   -9.1264    8.9378 N   0  0  0  0  0  0  0  0  0  0  0  0
   16.7363   -8.7155    7.6616 C   0  0  0  0  0  0  0  0  0  0  0  0
   17.6749   -7.9812    6.9373 C   0  0  0  0  0  0  0  0  0  0  0  0
   18.8956   -7.6641    7.5272 C   0  0  0  0  0  0  0  0  0  0  0  0
   19.1707   -8.0807    8.8282 C   0  0  0  0  0  0  0  0  0  0  0  0
   20.4837   -7.7272    9.4402 C   0  0  0  0  0  0  0  0  0  0  0  0
   18.2056   -8.8205    9.5325 C   0  0  0  0  0  0  0  0  0  0  0  0
   18.4591   -9.2330   10.8044 N   0  0  0  0  0  0  0  0  0  0  0  0
  1  2  1  0  0  0
  2  3  2  0  0  0
  3  4  1  0  0  0
  4  5  2  0  0  0
  5  8  1  0  0  0
  5  6  1  0  0  0
  8  9  1  0  0  0
  9 10  2  0  0  0
  9 12  1  0  0  0
 12 13  2  0  0  0
 13 14  1  0  0  0
 14 15  1  0  0  0
 14 16  2  0  0  0
 16 17  1  0  0  0
 17 18  2  0  0  0
 18 12  1  0  0  0
  6  7  2  0  0  0
  7 19  1  0  0  0
  7  2  1  0  0  0
 19 20  1  0  0  0
 20 21  1  0  0  0
 21 22  2  0  0  0
 22 23  1  0  0  0
 23 24  2  0  0  0
 23 25  1  0  0  0
 25 26  1  0  0  0
 26 27  2  0  0  0
 27 28  1  0  0  0
 28 29  2  0  0  0
 29 30  1  0  0  0
 29 31  1  0  0  0
 31 32  2  0  0  0
 31 25  1  0  0  0
 32 21  1  0  0  0
  8 11  1  0  0  0
M  END
>  <minimizedAffinity>
-7.54390

>  <minimizedRMSD>
1.22882

$$$$
ChemDiv-G756-0120 MCULE-9817465360 MolPort-007-878-991 PubChem-22580429 ZINC000021099509 ZINC21099509


 25 27  0  0  0  0  0  0  0  0999 V2000
   17.4459   -9.6257   13.4097 O   0  0  0  0  0  0  0  0  0  0  0  0
   16.7979   -9.5661   17.0523 C   0  0  0  0  0  0  0  0  0  0  0  0
   16.8460   -9.1909   15.7009 C   0  0  0  0  0  0  0  0  0  0  0  0
   17.4180  -10.0360   14.7449 C   0  0  0  0  0  0  0  0  0  0  0  0
   17.9487  -11.2716   15.1475 C   0  0  0  0  0  0  0  0  0  0  0  0
   17.9048  -11.6514   16.4911 C   0  0  0  0  0  0  0  0  0  0  0  0
   17.3311  -10.8001   17.4390 C   0  0  0  0  0  0  0  0  0  0  0  0
   15.1044   -7.8340   17.8902 C   0  0  0  0  0  0  0  0  0  0  0  0
   14.5008   -7.7411   16.7877 O   0  0  0  0  0  0  0  0  0  0  0  0
   16.2189   -8.7200   18.0551 N   0  0  0  0  0  0  0  0  0  0  0  0
   16.6296   -8.7509   18.9493 H   0  0  0  0  0  0  0  0  0  0  0  0
   14.9126   -7.7665   20.3485 C   0  0  0  0  0  0  0  0  0  0  0  0
   14.6444   -7.0251   19.0529 C   0  0  0  0  0  0  0  0  0  0  0  0
   18.4718  -10.0181   12.5072 C   0  0  0  0  0  0  0  0  0  0  0  0
   18.0882   -9.6403   11.1215 C   0  0  0  0  0  0  0  0  0  0  0  0
   16.8825  -10.0850   10.5874 C   0  0  0  0  0  0  0  0  0  0  0  0
   16.5347   -9.6936    9.2955 C   0  0  0  0  0  0  0  0  0  0  0  0
   15.4442  -10.0992    8.8075 O   0  0  0  0  0  0  0  0  0  0  0  0
   17.3690   -8.8804    8.5756 N   0  0  0  0  0  0  0  0  0  0  0  0
   17.0270   -8.4972    7.3092 C   0  0  0  0  0  0  0  0  0  0  0  0
   17.8644   -7.6662    6.5627 C   0  0  0  0  0  0  0  0  0  0  0  0
   19.0623   -7.2247    7.1212 C   0  0  0  0  0  0  0  0  0  0  0  0
   19.4108   -7.6156    8.4128 C   0  0  0  0  0  0  0  0  0  0  0  0
   18.5520   -8.4485    9.1339 C   0  0  0  0  0  0  0  0  0  0  0  0
   18.8937   -8.8280   10.3923 N   0  0  0  0  0  0  0  0  0  0  0  0
 12 13  1  0  0  0
 13  8  1  0  0  0
  8  9  2  0  0  0
  8 10  1  0  0  0
 10  2  1  0  0  0
  2  3  2  0  0  0
  3  4  1  0  0  0
  4  1  1  0  0  0
  4  5  2  0  0  0
  1 14  1  0  0  0
 14 15  1  0  0  0
 15 16  2  0  0  0
 16 17  1  0  0  0
 17 18  2  0  0  0
 17 19  1  0  0  0
 19 20  1  0  0  0
 20 21  2  0  0  0
 21 22  1  0  0  0
 22 23  2  0  0  0
 23 24  1  0  0  0
 24 25  2  0  0  0
 24 19  1  0  0  0
 25 15  1  0  0  0
  5  6  1  0  0  0
  6  7  2  0  0  0
  7  2  1  0  0  0
 10 11  1  0  0  0
M  END
>  <minimizedAffinity>
-7.53594

>  <minimizedRMSD>
0.89041

$$$$
ChemDiv-C679-5826 MCULE-8129945346 MolPort-007-656-164 PubChem-20874354 ZINC000013368394 ZINC13368394


 31 34  0  0  0  0  0  0  0  0999 V2000
   17.7378   -9.6988   11.3714 C   0  0  0  0  0  0  0  0  0  0  0  0
   16.6071  -10.0914   10.6364 C   0  0  0  0  0  0  0  0  0  0  0  0
   16.5345   -9.7504    9.2815 C   0  0  0  0  0  0  0  0  0  0  0  0
   15.5341  -10.0886    8.5951 O   0  0  0  0  0  0  0  0  0  0  0  0
   17.5585   -9.0484    8.7259 N   0  0  0  0  0  0  0  0  0  0  0  0
   17.6155   -8.6693    7.4515 N   0  0  0  0  0  0  0  0  0  0  0  0
   18.7569   -7.9964    7.1689 C   0  0  0  0  0  0  0  0  0  0  0  0
   19.7560   -7.8378    8.5375 S   0  0  0  0  0  0  0  0  0  0  0  0
   18.6325   -8.6823    9.4566 C   0  0  0  0  0  0  0  0  0  0  0  0
   18.7401   -8.9952   10.7705 N   0  0  0  0  0  0  0  0  0  0  0  0
   19.0619   -7.4595    5.8110 C   0  0  0  0  0  0  0  0  0  0  0  0
   20.5535   -7.1652    5.6582 C   0  0  0  0  0  0  0  0  0  0  0  0
   20.8573   -6.5016    4.3077 C   0  0  0  0  0  0  0  0  0  0  0  0
   19.8784   -6.8982    3.1936 C   0  0  0  0  0  0  0  0  0  0  0  0
   19.3364   -8.3093    3.4059 C   0  0  0  0  0  0  0  0  0  0  0  0
   18.5518   -8.4129    4.7200 C   0  0  0  0  0  0  0  0  0  0  0  0
   17.8416  -10.0589   12.8111 C   0  0  0  0  0  0  0  0  0  0  0  0
   16.7208   -9.5456   13.5194 O   0  0  0  0  0  0  0  0  0  0  0  0
   15.8820   -8.4308   16.9479 C   0  0  0  0  0  0  0  0  0  0  0  0
   15.9647   -8.4878   15.5481 C   0  0  0  0  0  0  0  0  0  0  0  0
   16.6588   -9.5246   14.9148 C   0  0  0  0  0  0  0  0  0  0  0  0
   17.2746  -10.5175   15.6932 C   0  0  0  0  0  0  0  0  0  0  0  0
   17.1946  -10.4692   17.0868 C   0  0  0  0  0  0  0  0  0  0  0  0
   16.5015   -9.4279   17.7106 C   0  0  0  0  0  0  0  0  0  0  0  0
   13.8512   -7.4314   18.1587 C   0  0  0  0  0  0  0  0  0  0  0  0
   13.1760   -8.4936   18.1147 O   0  0  0  0  0  0  0  0  0  0  0  0
   15.1842   -7.3774   17.6256 N   0  0  0  0  0  0  0  0  0  0  0  0
   15.6694   -6.5280   17.7373 H   0  0  0  0  0  0  0  0  0  0  0  0
   13.2061   -6.3667   20.2951 C   0  0  0  0  0  0  0  0  0  0  0  0
   13.2494   -6.2180   18.7868 C   0  0  0  0  0  0  0  0  0  0  0  0
   11.8498   -5.9810   18.2522 C   0  0  0  0  0  0  0  0  0  0  0  0
 29 30  1  0  0  0
 30 31  1  0  0  0
 30 25  1  0  0  0
 25 26  2  0  0  0
 25 27  1  0  0  0
 27 19  1  0  0  0
 19 20  2  0  0  0
 20 21  1  0  0  0
 21 18  1  0  0  0
 21 22  2  0  0  0
 18 17  1  0  0  0
 17  1  1  0  0  0
  1  2  2  0  0  0
  2  3  1  0  0  0
  3  4  2  0  0  0
  3  5  1  0  0  0
  5  6  1  0  0  0
  6  7  2  0  0  0
  7  8  1  0  0  0
  7 11  1  0  0  0
  8  9  1  0  0  0
  9 10  2  0  0  0
  9  5  1  0  0  0
 10  1  1  0  0  0
 11 12  1  0  0  0
 12 13  1  0  0  0
 13 14  1  0  0  0
 14 15  1  0  0  0
 15 16  1  0  0  0
 16 11  1  0  0  0
 22 23  1  0  0  0
 23 24  2  0  0  0
 24 19  1  0  0  0
 27 28  1  0  0  0
M  END
>  <minimizedAffinity>
-7.53452

>  <minimizedRMSD>
2.00454

$$$$
ChemDiv-G357-1500 CSC048153819 MCULE-1348039423 MolPort-007-847-546 PubChem-8247139 ZINC000007122970


 29 32  0  0  0  0  0  0  0  0999 V2000
   17.0106  -10.1989   15.4572 C   0  0  0  0  0  0  0  0  0  0  0  0
   17.1514  -10.3805   16.8401 C   0  0  0  0  0  0  0  0  0  0  0  0
   16.5555   -9.4859   17.7338 C   0  0  0  0  0  0  0  0  0  0  0  0
   15.8125   -8.4003   17.2593 C   0  0  0  0  0  0  0  0  0  0  0  0
   15.6715   -8.2184   15.8756 C   0  0  0  0  0  0  0  0  0  0  0  0
   16.2666   -9.1118   14.9810 C   0  0  0  0  0  0  0  0  0  0  0  0
   15.2167   -7.5051   18.2080 N   0  0  0  0  0  0  0  0  0  0  0  0
   13.8154   -7.3295   18.4624 C   0  0  0  0  0  0  0  0  0  0  0  0
   12.9539   -7.9946   17.8271 O   0  0  0  0  0  0  0  0  0  0  0  0
   15.8338   -6.9529   18.7405 H   0  0  0  0  0  0  0  0  0  0  0  0
   13.3798   -6.3625   19.4760 C   0  0  0  0  0  0  0  0  0  0  0  0
   13.7321   -6.3815   20.8165 C   0  0  0  0  0  0  0  0  0  0  0  0
   13.1609   -5.3264   21.5429 C   0  0  0  0  0  0  0  0  0  0  0  0
   12.3597   -4.4732   20.7870 C   0  0  0  0  0  0  0  0  0  0  0  0
   12.3724   -5.0491   19.2064 S   0  0  0  0  0  0  0  0  0  0  0  0
   17.6357  -11.1370   14.5111 C   0  0  0  0  0  0  0  0  0  0  0  0
   18.1890  -12.1890   14.9361 O   0  0  0  0  0  0  0  0  0  0  0  0
   17.6131  -10.8571   13.1429 O   0  0  0  0  0  0  0  0  0  0  0  0
   18.5211   -9.9417   12.5480 C   0  0  0  0  0  0  0  0  0  0  0  0
   17.2266   -8.9719    8.6515 N   0  0  0  0  0  0  0  0  0  0  0  0
   16.9755   -8.5519    7.3819 C   0  0  0  0  0  0  0  0  0  0  0  0
   17.9892   -7.7610    6.8283 C   0  0  0  0  0  0  0  0  0  0  0  0
   19.2170   -7.6034    7.9884 S   0  0  0  0  0  0  0  0  0  0  0  0
   18.4128   -8.5346    9.1188 C   0  0  0  0  0  0  0  0  0  0  0  0
   18.8489   -8.8415   10.3650 N   0  0  0  0  0  0  0  0  0  0  0  0
   18.0710   -9.6203   11.1682 C   0  0  0  0  0  0  0  0  0  0  0  0
   16.8262  -10.0845   10.7141 C   0  0  0  0  0  0  0  0  0  0  0  0
   16.4124   -9.7448    9.4212 C   0  0  0  0  0  0  0  0  0  0  0  0
   15.3016  -10.1510    8.9862 O   0  0  0  0  0  0  0  0  0  0  0  0
 20 21  1  0  0  0
 21 22  2  0  0  0
 22 23  1  0  0  0
 23 24  1  0  0  0
 24 25  2  0  0  0
 25 26  1  0  0  0
 26 19  1  0  0  0
 19 18  1  0  0  0
 18 16  1  0  0  0
 16 17  2  0  0  0
 16  1  1  0  0  0
  1  2  2  0  0  0
  2  3  1  0  0  0
  3  4  2  0  0  0
  4  5  1  0  0  0
  5  6  2  0  0  0
  4  7  1  0  0  0
  7  8  1  0  0  0
  8  9  2  0  0  0
  8 11  1  0  0  0
 11 12  2  0  0  0
 12 13  1  0  0  0
 13 14  2  0  0  0
 14 15  1  0  0  0
 26 27  2  0  0  0
 27 28  1  0  0  0
 28 29  2  0  0  0
 24 20  1  0  0  0
  6  1  1  0  0  0
 15 11  1  0  0  0
 28 20  1  0  0  0
  7 10  1  0  0  0
M  END
>  <minimizedAffinity>
-7.51370

>  <minimizedRMSD>
1.47507

$$$$
ChemDiv-C679-4568 MCULE-9077179619 MolPort-007-655-932 PubChem-46258385 ZINC000009858748 ZINC09858748


 36 39  0  0  0  0  0  0  0  0999 V2000
   16.7717   -9.8648   16.9057 C   0  0  0  0  0  0  0  0  0  0  0  0
   16.7976   -9.4987   15.5512 C   0  0  0  0  0  0  0  0  0  0  0  0
   17.5412  -10.2377   14.6258 C   0  0  0  0  0  0  0  0  0  0  0  0
   18.2676  -11.3568   15.0625 C   0  0  0  0  0  0  0  0  0  0  0  0
   18.2462  -11.7268   16.4093 C   0  0  0  0  0  0  0  0  0  0  0  0
   17.5002  -10.9820   17.3265 C   0  0  0  0  0  0  0  0  0  0  0  0
   15.1716   -7.9932   17.6324 C   0  0  0  0  0  0  0  0  0  0  0  0
   15.0253   -7.5419   16.4638 O   0  0  0  0  0  0  0  0  0  0  0  0
   16.0186   -9.1267   17.8776 N   0  0  0  0  0  0  0  0  0  0  0  0
   16.0898   -9.4290   18.8118 H   0  0  0  0  0  0  0  0  0  0  0  0
   13.1274   -6.1286   20.9099 C   0  0  0  0  0  0  0  0  0  0  0  0
   14.3678   -6.7504   21.1192 C   0  0  0  0  0  0  0  0  0  0  0  0
   15.0294   -7.3582   20.0395 C   0  0  0  0  0  0  0  0  0  0  0  0
   14.4673   -7.3520   18.7567 C   0  0  0  0  0  0  0  0  0  0  0  0
   13.2290   -6.7292   18.5565 C   0  0  0  0  0  0  0  0  0  0  0  0
   12.5640   -6.1224   19.6237 C   0  0  0  0  0  0  0  0  0  0  0  0
   11.2291   -4.8532   21.8589 C   0  0  0  0  0  0  0  0  0  0  0  0
   12.4744   -5.5253   21.9903 O   0  0  0  0  0  0  0  0  0  0  0  0
   14.9233   -6.7528   22.4034 O   0  0  0  0  0  0  0  0  0  0  0  0
   16.3075   -6.5376   22.6430 C   0  0  0  0  0  0  0  0  0  0  0  0
   17.5408   -9.8405   13.2865 O   0  0  0  0  0  0  0  0  0  0  0  0
   18.1322  -10.6190   12.2545 C   0  0  0  0  0  0  0  0  0  0  0  0
   17.9516   -9.9338   10.9476 C   0  0  0  0  0  0  0  0  0  0  0  0
   16.7177  -10.0161   10.2813 C   0  0  0  0  0  0  0  0  0  0  0  0
   16.5636   -9.3404    9.0657 C   0  0  0  0  0  0  0  0  0  0  0  0
   15.4712   -9.3980    8.4412 O   0  0  0  0  0  0  0  0  0  0  0  0
   17.6100   -8.6240    8.5769 N   0  0  0  0  0  0  0  0  0  0  0  0
   17.5945   -7.9385    7.4363 N   0  0  0  0  0  0  0  0  0  0  0  0
   18.7750   -7.3159    7.2008 C   0  0  0  0  0  0  0  0  0  0  0  0
   19.9078   -7.6102    8.4305 S   0  0  0  0  0  0  0  0  0  0  0  0
   18.7822   -8.5560    9.2424 C   0  0  0  0  0  0  0  0  0  0  0  0
   18.9705   -9.1964   10.4220 N   0  0  0  0  0  0  0  0  0  0  0  0
   19.0442   -6.4967    5.9777 C   0  0  0  0  0  0  0  0  0  0  0  0
   19.8011   -7.2624    4.8907 C   0  0  0  0  0  0  0  0  0  0  0  0
   19.3618   -8.7133    4.8077 C   0  0  0  0  0  0  0  0  0  0  0  0
   21.3054   -7.1706    5.0737 C   0  0  0  0  0  0  0  0  0  0  0  0
 17 18  1  0  0  0
 18 11  1  0  0  0
 11 12  2  0  0  0
 12 19  1  0  0  0
 12 13  1  0  0  0
 19 20  1  0  0  0
 13 14  2  0  0  0
 14 15  1  0  0  0
 14  7  1  0  0  0
 15 16  2  0  0  0
 16 11  1  0  0  0
  7  8  2  0  0  0
  7  9  1  0  0  0
  9  1  1  0  0  0
  1  2  2  0  0  0
  2  3  1  0  0  0
  3 21  1  0  0  0
  3  4  2  0  0  0
 21 22  1  0  0  0
 22 23  1  0  0  0
 23 24  2  0  0  0
 24 25  1  0  0  0
 25 26  2  0  0  0
 25 27  1  0  0  0
 27 28  1  0  0  0
 28 29  2  0  0  0
 29 33  1  0  0  0
 29 30  1  0  0  0
 33 34  1  0  0  0
 34 35  1  0  0  0
 34 36  1  0  0  0
 30 31  1  0  0  0
 31 32  2  0  0  0
 31 27  1  0  0  0
 32 23  1  0  0  0
  4  5  1  0  0  0
  5  6  2  0  0  0
  6  1  1  0  0  0
  9 10  1  0  0  0
M  END
>  <minimizedAffinity>
-7.49740

>  <minimizedRMSD>
0.89171

$$$$
ChemDiv-C679-5942 MCULE-3061938266 MolPort-010-733-783 PubChem-51690586 ZINC000035372121


 29 32  0  0  0  0  0  0  0  0999 V2000
   16.0390  -10.0735   11.9708 C   0  0  0  0  0  0  0  0  0  0  0  0
   17.7895   -9.0977    8.2491 N   0  0  0  0  0  0  0  0  0  0  0  0
   18.4908   -8.6388    7.1694 C   0  0  0  0  0  0  0  0  0  0  0  0
   18.2323   -9.0396    5.7429 C   0  0  0  0  0  0  0  0  0  0  0  0
   18.8102   -8.0047    4.7739 C   0  0  0  0  0  0  0  0  0  0  0  0
   20.2772   -7.7252    5.1085 C   0  0  0  0  0  0  0  0  0  0  0  0
   20.4263   -7.1009    6.5016 C   0  0  0  0  0  0  0  0  0  0  0  0
   19.5384   -7.7786    7.5005 C   0  0  0  0  0  0  0  0  0  0  0  0
   19.5712   -7.5451    9.1715 S   0  0  0  0  0  0  0  0  0  0  0  0
   18.2672   -8.5809    9.4082 C   0  0  0  0  0  0  0  0  0  0  0  0
   17.7191   -8.8906   10.6085 N   0  0  0  0  0  0  0  0  0  0  0  0
   16.6647   -9.7495   10.6618 C   0  0  0  0  0  0  0  0  0  0  0  0
   16.1392  -10.2962    9.4834 C   0  0  0  0  0  0  0  0  0  0  0  0
   16.7256   -9.9564    8.2600 C   0  0  0  0  0  0  0  0  0  0  0  0
   16.2631  -10.4430    7.1941 O   0  0  0  0  0  0  0  0  0  0  0  0
   16.2933   -9.0226   12.8936 O   0  0  0  0  0  0  0  0  0  0  0  0
   16.9480   -9.2289   14.1105 C   0  0  0  0  0  0  0  0  0  0  0  0
   18.2503   -9.7498   14.1676 C   0  0  0  0  0  0  0  0  0  0  0  0
   18.8761   -9.9439   15.4014 C   0  0  0  0  0  0  0  0  0  0  0  0
   18.2055   -9.6191   16.5835 C   0  0  0  0  0  0  0  0  0  0  0  0
   16.9075   -9.0994   16.5417 C   0  0  0  0  0  0  0  0  0  0  0  0
   16.2849   -8.9070   15.2989 C   0  0  0  0  0  0  0  0  0  0  0  0
   16.2528   -8.7786   17.7766 N   0  0  0  0  0  0  0  0  0  0  0  0
   15.1372   -7.8959   17.9524 C   0  0  0  0  0  0  0  0  0  0  0  0
   14.6177   -7.2992   16.9698 O   0  0  0  0  0  0  0  0  0  0  0  0
   16.6064   -9.2095   18.5881 H   0  0  0  0  0  0  0  0  0  0  0  0
   14.5918   -7.6890   19.3269 C   0  0  0  0  0  0  0  0  0  0  0  0
   15.6800   -7.2040   20.2655 C   0  0  0  0  0  0  0  0  0  0  0  0
   13.4480   -6.6934   19.3029 C   0  0  0  0  0  0  0  0  0  0  0  0
  2  3  1  0  0  0
  3  4  1  0  0  0
  4  5  1  0  0  0
  5  6  1  0  0  0
  6  7  1  0  0  0
  7  8  1  0  0  0
  8  9  1  0  0  0
  9 10  1  0  0  0
 10 11  2  0  0  0
 11 12  1  0  0  0
 12  1  1  0  0  0
  1 16  1  0  0  0
 16 17  1  0  0  0
 17 18  2  0  0  0
 18 19  1  0  0  0
 19 20  2  0  0  0
 20 21  1  0  0  0
 21 22  2  0  0  0
 21 23  1  0  0  0
 23 24  1  0  0  0
 24 27  1  0  0  0
 27 28  1  0  0  0
 27 29  1  0  0  0
 24 25  2  0  0  0
 12 13  2  0  0  0
 13 14  1  0  0  0
 14 15  2  0  0  0
 10  2  1  0  0  0
 22 17  1  0  0  0
 14  2  1  0  0  0
  8  3  2  0  0  0
 23 26  1  0  0  0
M  END
>  <minimizedAffinity>
-7.49425

>  <minimizedRMSD>
1.40536

$$$$
ChemDiv-G756-0766 MCULE-5426730512 MolPort-010-744-657 PubChem-50802648 ZINC000033268575 ZINC33268575


 32 35  0  0  0  0  0  0  0  0999 V2000
   16.2848   -9.0368   17.3328 C   0  0  0  0  0  0  0  0  0  0  0  0
   16.8389  -10.1490   17.9667 C   0  0  0  0  0  0  0  0  0  0  0  0
   17.4930  -11.1310   17.2224 C   0  0  0  0  0  0  0  0  0  0  0  0
   17.6041  -11.0178   15.8332 C   0  0  0  0  0  0  0  0  0  0  0  0
   18.3192  -12.1144   15.1219 C   0  0  0  0  0  0  0  0  0  0  0  0
   17.0448   -9.8910   15.1742 C   0  0  0  0  0  0  0  0  0  0  0  0
   16.3931   -8.9182   15.9411 C   0  0  0  0  0  0  0  0  0  0  0  0
   14.2039   -7.8530   18.2596 C   0  0  0  0  0  0  0  0  0  0  0  0
   13.3950   -8.5952   17.6387 O   0  0  0  0  0  0  0  0  0  0  0  0
   15.6209   -8.0472   18.1305 N   0  0  0  0  0  0  0  0  0  0  0  0
   16.1975   -7.4363   18.6440 H   0  0  0  0  0  0  0  0  0  0  0  0
   12.1971   -3.6435   21.6508 C   0  0  0  0  0  0  0  0  0  0  0  0
   12.7143   -4.7280   20.7765 C   0  0  0  0  0  0  0  0  0  0  0  0
   12.2823   -4.8227   19.4510 C   0  0  0  0  0  0  0  0  0  0  0  0
   12.7685   -5.8434   18.6285 C   0  0  0  0  0  0  0  0  0  0  0  0
   13.6903   -6.7770   19.1257 C   0  0  0  0  0  0  0  0  0  0  0  0
   14.1183   -6.6743   20.4576 C   0  0  0  0  0  0  0  0  0  0  0  0
   13.6321   -5.6536   21.2799 C   0  0  0  0  0  0  0  0  0  0  0  0
   17.0940   -9.6695   13.7885 O   0  0  0  0  0  0  0  0  0  0  0  0
   17.9116  -10.3778   12.8680 C   0  0  0  0  0  0  0  0  0  0  0  0
   17.5853   -9.9523   11.4817 C   0  0  0  0  0  0  0  0  0  0  0  0
   16.3455  -10.2608   10.9328 C   0  0  0  0  0  0  0  0  0  0  0  0
   16.0562   -9.8266    9.6408 C   0  0  0  0  0  0  0  0  0  0  0  0
   14.9334  -10.1105    9.1398 O   0  0  0  0  0  0  0  0  0  0  0  0
   16.9804   -9.1036    8.9340 N   0  0  0  0  0  0  0  0  0  0  0  0
   16.6890   -8.6814    7.6676 C   0  0  0  0  0  0  0  0  0  0  0  0
   17.6120   -7.9415    6.9288 C   0  0  0  0  0  0  0  0  0  0  0  0
   18.8459   -7.6307    7.4939 C   0  0  0  0  0  0  0  0  0  0  0  0
   19.1493   -8.0583    8.7850 C   0  0  0  0  0  0  0  0  0  0  0  0
   20.4769   -7.7133    9.3698 C   0  0  0  0  0  0  0  0  0  0  0  0
   18.1991   -8.8031    9.5045 C   0  0  0  0  0  0  0  0  0  0  0  0
   18.4809   -9.2278   10.7663 N   0  0  0  0  0  0  0  0  0  0  0  0
 12 13  1  0  0  0
 13 14  2  0  0  0
 14 15  1  0  0  0
 15 16  2  0  0  0
 16 17  1  0  0  0
 16  8  1  0  0  0
 17 18  2  0  0  0
 18 13  1  0  0  0
  8  9  2  0  0  0
  8 10  1  0  0  0
 10  1  1  0  0  0
  1  2  2  0  0  0
  2  3  1  0  0  0
  3  4  2  0  0  0
  4  5  1  0  0  0
  4  6  1  0  0  0
  6 19  1  0  0  0
  6  7  2  0  0  0
 19 20  1  0  0  0
 20 21  1  0  0  0
 21 22  2  0  0  0
 22 23  1  0  0  0
 23 24  2  0  0  0
 23 25  1  0  0  0
 25 26  1  0  0  0
 26 27  2  0  0  0
 27 28  1  0  0  0
 28 29  2  0  0  0
 29 30  1  0  0  0
 29 31  1  0  0  0
 31 32  2  0  0  0
 31 25  1  0  0  0
 32 21  1  0  0  0
  7  1  1  0  0  0
 10 11  1  0  0  0
M  END
>  <minimizedAffinity>
-7.48850

>  <minimizedRMSD>
1.15324

$$$$
ChemDiv-G357-3501 MCULE-6285449745 MolPort-007-848-014 PubChem-20953229 ZINC000015772381 ZINC15772381


 31 33  0  0  0  0  0  0  0  0999 V2000
   17.9718  -10.9799   13.4668 C   0  0  0  0  0  0  0  0  0  0  0  0
   18.1625  -12.2277   13.4781 O   0  0  0  0  0  0  0  0  0  0  0  0
   16.4860   -8.9976   16.9638 C   0  0  0  0  0  0  0  0  0  0  0  0
   16.3474   -8.4075   15.6989 C   0  0  0  0  0  0  0  0  0  0  0  0
   16.8331   -9.0552   14.5598 C   0  0  0  0  0  0  0  0  0  0  0  0
   17.4643  -10.3009   14.6697 C   0  0  0  0  0  0  0  0  0  0  0  0
   17.6033  -10.8901   15.9341 C   0  0  0  0  0  0  0  0  0  0  0  0
   17.1168  -10.2410   17.0725 C   0  0  0  0  0  0  0  0  0  0  0  0
   14.7777   -7.6293   18.2977 C   0  0  0  0  0  0  0  0  0  0  0  0
   13.9822   -7.4889   17.3303 O   0  0  0  0  0  0  0  0  0  0  0  0
   15.9997   -8.3643   18.1551 N   0  0  0  0  0  0  0  0  0  0  0  0
   16.5638   -8.4425   18.9581 H   0  0  0  0  0  0  0  0  0  0  0  0
   14.4399   -7.0334   19.6232 C   0  0  0  0  0  0  0  0  0  0  0  0
   15.6578   -6.9938   20.5333 C   0  0  0  0  0  0  0  0  0  0  0  0
   16.4105   -6.6745   22.8692 C   0  0  0  0  0  0  0  0  0  0  0  0
   15.2341   -7.0412   21.9895 C   0  0  0  0  0  0  0  0  0  0  0  0
   18.2393  -10.2374   12.3146 O   0  0  0  0  0  0  0  0  0  0  0  0
   17.2679   -9.3836   11.7283 C   0  0  0  0  0  0  0  0  0  0  0  0
   17.5401   -9.2461   10.2732 C   0  0  0  0  0  0  0  0  0  0  0  0
   16.7732   -9.9735    9.3478 C   0  0  0  0  0  0  0  0  0  0  0  0
   17.0291   -9.8050    7.9826 C   0  0  0  0  0  0  0  0  0  0  0  0
   16.3620  -10.4460    7.1276 O   0  0  0  0  0  0  0  0  0  0  0  0
   18.0044   -8.9390    7.6005 N   0  0  0  0  0  0  0  0  0  0  0  0
   18.3475   -8.6898    6.3391 N   0  0  0  0  0  0  0  0  0  0  0  0
   19.3474   -7.7790    6.2548 C   0  0  0  0  0  0  0  0  0  0  0  0
   19.8611   -7.2510    7.7842 S   0  0  0  0  0  0  0  0  0  0  0  0
   18.7204   -8.2467    8.5113 C   0  0  0  0  0  0  0  0  0  0  0  0
   18.5032   -8.3830    9.8423 N   0  0  0  0  0  0  0  0  0  0  0  0
   19.9544   -7.3463    4.9637 C   0  0  0  0  0  0  0  0  0  0  0  0
   19.7785   -8.4162    3.8979 C   0  0  0  0  0  0  0  0  0  0  0  0
   18.8806   -7.9149    2.7821 C   0  0  0  0  0  0  0  0  0  0  0  0
 15 16  1  0  0  0
 16 14  1  0  0  0
 14 13  1  0  0  0
 13  9  1  0  0  0
  9 10  2  0  0  0
  9 11  1  0  0  0
 11  3  1  0  0  0
  3  4  2  0  0  0
  4  5  1  0  0  0
  5  6  2  0  0  0
  6  7  1  0  0  0
  6  1  1  0  0  0
  7  8  2  0  0  0
  8  3  1  0  0  0
  1  2  2  0  0  0
  1 17  1  0  0  0
 17 18  1  0  0  0
 18 19  1  0  0  0
 19 20  2  0  0  0
 20 21  1  0  0  0
 21 22  2  0  0  0
 21 23  1  0  0  0
 23 24  1  0  0  0
 24 25  2  0  0  0
 25 29  1  0  0  0
 25 26  1  0  0  0
 29 30  1  0  0  0
 30 31  1  0  0  0
 26 27  1  0  0  0
 27 28  2  0  0  0
 27 23  1  0  0  0
 28 19  1  0  0  0
 11 12  1  0  0  0
M  END
>  <minimizedAffinity>
-7.48623

>  <minimizedRMSD>
1.23736

$$$$
ChemDiv-C679-5545 MCULE-7150070798 MolPort-007-656-128 PubChem-46258481 ZINC000021369140


 28 31  0  0  0  0  0  0  0  0999 V2000
   17.4615  -10.6296   14.1918 C   0  0  0  0  0  0  0  0  0  0  0  0
   18.2510  -11.7037   14.6313 C   0  0  0  0  0  0  0  0  0  0  0  0
   18.3088  -12.0241   15.9897 C   0  0  0  0  0  0  0  0  0  0  0  0
   17.5790  -11.2741   16.9158 C   0  0  0  0  0  0  0  0  0  0  0  0
   16.7881  -10.2011   16.4923 C   0  0  0  0  0  0  0  0  0  0  0  0
   16.7348   -9.8849   15.1262 C   0  0  0  0  0  0  0  0  0  0  0  0
   16.0541   -9.4560   17.4733 N   0  0  0  0  0  0  0  0  0  0  0  0
   15.4025   -8.1921   17.2830 C   0  0  0  0  0  0  0  0  0  0  0  0
   15.4329   -7.6102   16.1652 O   0  0  0  0  0  0  0  0  0  0  0  0
   15.9907   -9.8535   18.3718 H   0  0  0  0  0  0  0  0  0  0  0  0
   14.6910   -7.5690   18.4049 C   0  0  0  0  0  0  0  0  0  0  0  0
   13.4656   -6.9249   18.3295 C   0  0  0  0  0  0  0  0  0  0  0  0
   13.0359   -6.4289   19.5691 C   0  0  0  0  0  0  0  0  0  0  0  0
   13.9118   -6.6759   20.6241 C   0  0  0  0  0  0  0  0  0  0  0  0
   15.2247   -7.5178   19.9939 S   0  0  0  0  0  0  0  0  0  0  0  0
   17.3813  -10.2825   12.8408 O   0  0  0  0  0  0  0  0  0  0  0  0
   18.1774   -9.2562   12.2634 C   0  0  0  0  0  0  0  0  0  0  0  0
   17.6500   -9.2119    8.0773 N   0  0  0  0  0  0  0  0  0  0  0  0
   17.6307   -9.0751    6.7244 C   0  0  0  0  0  0  0  0  0  0  0  0
   18.6598   -8.2650    6.2497 C   0  0  0  0  0  0  0  0  0  0  0  0
   19.6060   -7.7113    7.5385 S   0  0  0  0  0  0  0  0  0  0  0  0
   18.6631   -8.5312    8.6583 C   0  0  0  0  0  0  0  0  0  0  0  0
   18.8502   -8.5408   10.0010 N   0  0  0  0  0  0  0  0  0  0  0  0
   18.0009   -9.2597   10.7873 C   0  0  0  0  0  0  0  0  0  0  0  0
   16.9345   -9.9698   10.2139 C   0  0  0  0  0  0  0  0  0  0  0  0
   16.7728   -9.9360    8.8248 C   0  0  0  0  0  0  0  0  0  0  0  0
   15.8261  -10.5678    8.2838 O   0  0  0  0  0  0  0  0  0  0  0  0
   18.8929   -7.9334    4.8201 C   0  0  0  0  0  0  0  0  0  0  0  0
 18 19  1  0  0  0
 19 20  2  0  0  0
 20 21  1  0  0  0
 21 22  1  0  0  0
 22 23  2  0  0  0
 23 24  1  0  0  0
 24 17  1  0  0  0
 17 16  1  0  0  0
 16  1  1  0  0  0
  1  2  2  0  0  0
  2  3  1  0  0  0
  3  4  2  0  0  0
  4  5  1  0  0  0
  5  6  2  0  0  0
  5  7  1  0  0  0
  7  8  1  0  0  0
  8  9  2  0  0  0
  8 11  1  0  0  0
 11 12  2  0  0  0
 12 13  1  0  0  0
 13 14  2  0  0  0
 14 15  1  0  0  0
 24 25  2  0  0  0
 25 26  1  0  0  0
 26 27  2  0  0  0
 20 28  1  0  0  0
 22 18  1  0  0  0
  6  1  1  0  0  0
 15 11  1  0  0  0
 26 18  1  0  0  0
  7 10  1  0  0  0
M  END
>  <minimizedAffinity>
-7.48431

>  <minimizedRMSD>
0.95741

$$$$
ChemDiv-C679-4005 MCULE-7293071565 MolPort-007-655-737 PubChem-20874180 ZINC000013367819 ZINC13367819


 26 28  0  0  0  0  0  0  0  0999 V2000
   17.0529  -10.3331   16.4975 C   0  0  0  0  0  0  0  0  0  0  0  0
   16.9260  -10.1177   15.1167 C   0  0  0  0  0  0  0  0  0  0  0  0
   17.5534  -10.9677   14.2006 C   0  0  0  0  0  0  0  0  0  0  0  0
   18.3167  -12.0469   14.6735 C   0  0  0  0  0  0  0  0  0  0  0  0
   18.4466  -12.2676   16.0467 C   0  0  0  0  0  0  0  0  0  0  0  0
   17.8159  -11.4127   16.9543 C   0  0  0  0  0  0  0  0  0  0  0  0
   15.6895   -8.2762   17.1900 C   0  0  0  0  0  0  0  0  0  0  0  0
   15.5639   -7.8375   16.0153 O   0  0  0  0  0  0  0  0  0  0  0  0
   16.4194   -9.4796   17.4603 N   0  0  0  0  0  0  0  0  0  0  0  0
   16.4937   -9.7481   18.4046 H   0  0  0  0  0  0  0  0  0  0  0  0
   15.0829   -7.5246   18.3272 C   0  0  0  0  0  0  0  0  0  0  0  0
   12.8260   -7.7059   19.3780 C   0  0  0  0  0  0  0  0  0  0  0  0
   13.5888   -7.3291   18.1217 C   0  0  0  0  0  0  0  0  0  0  0  0
   17.4028  -10.7189   12.8341 O   0  0  0  0  0  0  0  0  0  0  0  0
   16.8655   -9.5033   12.3298 C   0  0  0  0  0  0  0  0  0  0  0  0
   17.1831   -9.3806   10.8826 C   0  0  0  0  0  0  0  0  0  0  0  0
   16.4679  -10.1430    9.9442 C   0  0  0  0  0  0  0  0  0  0  0  0
   16.7666   -9.9899    8.5858 C   0  0  0  0  0  0  0  0  0  0  0  0
   16.1459  -10.6617    7.7197 O   0  0  0  0  0  0  0  0  0  0  0  0
   17.7328   -9.1057    8.2226 N   0  0  0  0  0  0  0  0  0  0  0  0
   18.1102   -8.8647    6.9693 N   0  0  0  0  0  0  0  0  0  0  0  0
   19.0909   -7.9326    6.9053 C   0  0  0  0  0  0  0  0  0  0  0  0
   19.6983   -7.4732    5.6293 C   0  0  0  0  0  0  0  0  0  0  0  0
   19.5332   -7.3612    8.4403 S   0  0  0  0  0  0  0  0  0  0  0  0
   18.3989   -8.3801    9.1455 C   0  0  0  0  0  0  0  0  0  0  0  0
   18.1382   -8.4997   10.4702 N   0  0  0  0  0  0  0  0  0  0  0  0
 12 13  1  0  0  0
 13 11  1  0  0  0
 11  7  1  0  0  0
  7  8  2  0  0  0
  7  9  1  0  0  0
  9  1  1  0  0  0
  1  2  2  0  0  0
  2  3  1  0  0  0
  3 14  1  0  0  0
  3  4  2  0  0  0
 14 15  1  0  0  0
 15 16  1  0  0  0
 16 17  2  0  0  0
 17 18  1  0  0  0
 18 19  2  0  0  0
 18 20  1  0  0  0
 20 21  1  0  0  0
 21 22  2  0  0  0
 22 23  1  0  0  0
 22 24  1  0  0  0
 24 25  1  0  0  0
 25 26  2  0  0  0
 25 20  1  0  0  0
 26 16  1  0  0  0
  4  5  1  0  0  0
  5  6  2  0  0  0
  6  1  1  0  0  0
  9 10  1  0  0  0
M  END
>  <minimizedAffinity>
-7.48321

>  <minimizedRMSD>
0.89112

$$$$
ChemDiv-C679-6502 MCULE-2280417307 MolPort-007-656-253 PubChem-46258534 ZINC000013368527


 32 35  0  0  0  0  0  0  0  0999 V2000
   17.3385   -9.9256   15.1028 C   0  0  0  0  0  0  0  0  0  0  0  0
   18.0012  -11.0384   15.6439 C   0  0  0  0  0  0  0  0  0  0  0  0
   17.9411  -11.2934   17.0160 C   0  0  0  0  0  0  0  0  0  0  0  0
   17.2196  -10.4394   17.8543 C   0  0  0  0  0  0  0  0  0  0  0  0
   16.5543   -9.3268   17.3289 C   0  0  0  0  0  0  0  0  0  0  0  0
   16.6189   -9.0767   15.9497 C   0  0  0  0  0  0  0  0  0  0  0  0
   15.8245   -8.4746   18.2220 N   0  0  0  0  0  0  0  0  0  0  0  0
   14.6591   -7.6956   17.9102 C   0  0  0  0  0  0  0  0  0  0  0  0
   14.1674   -7.7125   16.7489 O   0  0  0  0  0  0  0  0  0  0  0  0
   16.1576   -8.4176   19.1467 H   0  0  0  0  0  0  0  0  0  0  0  0
   14.0320   -6.8692   18.9568 C   0  0  0  0  0  0  0  0  0  0  0  0
   12.9454   -6.0367   18.6489 C   0  0  0  0  0  0  0  0  0  0  0  0
   12.3511   -5.2533   19.6425 C   0  0  0  0  0  0  0  0  0  0  0  0
   12.8390   -5.2966   20.9512 C   0  0  0  0  0  0  0  0  0  0  0  0
   13.9208   -6.1228   21.2668 C   0  0  0  0  0  0  0  0  0  0  0  0
   14.5150   -6.9062   20.2732 C   0  0  0  0  0  0  0  0  0  0  0  0
   12.0950   -4.3158   22.1952 Cl  0  0  0  0  0  0  0  0  0  0  0  0
   17.3782   -9.6415   13.7354 O   0  0  0  0  0  0  0  0  0  0  0  0
   18.1443  -10.4067   12.8143 C   0  0  0  0  0  0  0  0  0  0  0  0
   17.3704   -9.0124    8.9110 N   0  0  0  0  0  0  0  0  0  0  0  0
   17.2694   -8.5001    7.6869 N   0  0  0  0  0  0  0  0  0  0  0  0
   18.3760   -7.8012    7.3357 C   0  0  0  0  0  0  0  0  0  0  0  0
   19.5508   -7.8069    8.5608 S   0  0  0  0  0  0  0  0  0  0  0  0
   18.5385   -8.7351    9.5276 C   0  0  0  0  0  0  0  0  0  0  0  0
   18.8075   -9.1809   10.7789 N   0  0  0  0  0  0  0  0  0  0  0  0
   17.8767   -9.9342   11.4303 C   0  0  0  0  0  0  0  0  0  0  0  0
   16.6485  -10.2317   10.8168 C   0  0  0  0  0  0  0  0  0  0  0  0
   16.4095   -9.7532    9.5238 C   0  0  0  0  0  0  0  0  0  0  0  0
   15.3202  -10.0065    8.9442 O   0  0  0  0  0  0  0  0  0  0  0  0
   18.5455   -7.1481    6.0061 C   0  0  0  0  0  0  0  0  0  0  0  0
   19.5421   -7.9128    5.1501 C   0  0  0  0  0  0  0  0  0  0  0  0
   20.8301   -7.1251    4.9993 C   0  0  0  0  0  0  0  0  0  0  0  0
 20 21  1  0  0  0
 21 22  2  0  0  0
 22 23  1  0  0  0
 23 24  1  0  0  0
 24 25  2  0  0  0
 25 26  1  0  0  0
 26 19  1  0  0  0
 19 18  1  0  0  0
 18  1  1  0  0  0
  1  2  2  0  0  0
  2  3  1  0  0  0
  3  4  2  0  0  0
  4  5  1  0  0  0
  5  6  2  0  0  0
  5  7  1  0  0  0
  7  8  1  0  0  0
  8  9  2  0  0  0
  8 11  1  0  0  0
 11 12  2  0  0  0
 12 13  1  0  0  0
 13 14  2  0  0  0
 14 15  1  0  0  0
 15 16  2  0  0  0
 14 17  1  0  0  0
 26 27  2  0  0  0
 27 28  1  0  0  0
 28 29  2  0  0  0
 22 30  1  0  0  0
 30 31  1  0  0  0
 31 32  1  0  0  0
 24 20  1  0  0  0
  6  1  1  0  0  0
 16 11  1  0  0  0
 28 20  1  0  0  0
  7 10  1  0  0  0
M  END
>  <minimizedAffinity>
-7.47547

>  <minimizedRMSD>
0.85974

$$$$
ChemDiv-D549-1869 MCULE-6916137987 MolPort-010-800-766 PubChem-53046699 ZINC000064794054


 33 37  0  0  0  0  0  0  0  0999 V2000
   16.7095   -9.7158   11.9531 C   0  0  0  0  0  0  0  0  0  0  0  0
   15.4147   -9.5723   12.2976 N   0  0  0  0  0  0  0  0  0  0  0  0
   15.3174   -9.8701   13.5846 N   0  0  0  0  0  0  0  0  0  0  0  0
   16.5523  -10.2015   14.0036 C   0  0  0  0  0  0  0  0  0  0  0  0
   17.4519  -10.1409   13.0006 N   0  0  0  0  0  0  0  0  0  0  0  0
   19.0633   -7.8794   11.1660 N   0  0  0  0  0  0  0  0  0  0  0  0
   18.2866   -8.6271   10.2341 C   0  0  0  0  0  0  0  0  0  0  0  0
   17.2052   -9.4432   10.5932 C   0  0  0  0  0  0  0  0  0  0  0  0
   16.4533  -10.0161    9.1846 S   0  0  0  0  0  0  0  0  0  0  0  0
   17.5208   -9.2550    8.1382 C   0  0  0  0  0  0  0  0  0  0  0  0
   17.5010   -9.2836    6.7827 N   0  0  0  0  0  0  0  0  0  0  0  0
   18.4395   -8.5792    6.0860 C   0  0  0  0  0  0  0  0  0  0  0  0
   19.4161   -7.8241    6.7642 C   0  0  0  0  0  0  0  0  0  0  0  0
   19.4271   -7.7958    8.1676 C   0  0  0  0  0  0  0  0  0  0  0  0
   18.4592   -8.5320    8.8504 C   0  0  0  0  0  0  0  0  0  0  0  0
   18.9045   -7.9806   12.1323 H   0  0  0  0  0  0  0  0  0  0  0  0
   19.7586   -7.2616   10.8434 H   0  0  0  0  0  0  0  0  0  0  0  0
   18.8826  -10.4494   13.0594 C   0  0  0  0  0  0  0  0  0  0  0  0
   19.2223  -11.1360   14.3735 C   0  0  0  0  0  0  0  0  0  0  0  0
   19.0958  -11.9548   13.1130 C   0  0  0  0  0  0  0  0  0  0  0  0
   16.9291  -10.6441   15.7010 S   0  0  0  0  0  0  0  0  0  0  0  0
   17.3635   -8.9364   16.1584 C   0  0  0  0  0  0  0  0  0  0  0  0
   16.1956   -8.2419   16.7696 C   0  0  0  0  0  0  0  0  0  0  0  0
   15.3884   -7.6269   16.0241 O   0  0  0  0  0  0  0  0  0  0  0  0
   16.0176   -8.2747   18.1921 N   0  0  0  0  0  0  0  0  0  0  0  0
   16.7117   -8.7390   18.7134 H   0  0  0  0  0  0  0  0  0  0  0  0
   14.9325   -7.7008   18.9333 C   0  0  0  0  0  0  0  0  0  0  0  0
   15.0788   -7.5255   20.3139 C   0  0  0  0  0  0  0  0  0  0  0  0
   14.0411   -6.9735   21.0713 C   0  0  0  0  0  0  0  0  0  0  0  0
   12.8482   -6.5939   20.4501 C   0  0  0  0  0  0  0  0  0  0  0  0
   11.8428   -6.0591   21.1835 F   0  0  0  0  0  0  0  0  0  0  0  0
   12.6927   -6.7668   19.0723 C   0  0  0  0  0  0  0  0  0  0  0  0
   13.7309   -7.3188   18.3164 C   0  0  0  0  0  0  0  0  0  0  0  0
  6  7  1  0  0  0
  7  8  2  0  0  0
  8  9  1  0  0  0
  9 10  1  0  0  0
 10 11  2  0  0  0
 11 12  1  0  0  0
 12 13  2  0  0  0
 13 14  1  0  0  0
 14 15  2  0  0  0
  8  1  1  0  0  0
  1  2  2  0  0  0
  2  3  1  0  0  0
  3  4  2  0  0  0
  4 21  1  0  0  0
 21 22  1  0  0  0
 22 23  1  0  0  0
 23 24  2  0  0  0
 23 25  1  0  0  0
 25 27  1  0  0  0
 27 28  2  0  0  0
 28 29  1  0  0  0
 29 30  2  0  0  0
 30 31  1  0  0  0
 30 32  1  0  0  0
 32 33  2  0  0  0
  4  5  1  0  0  0
  5 18  1  0  0  0
 18 19  1  0  0  0
 19 20  1  0  0  0
 15  7  1  0  0  0
  5  1  1  0  0  0
 20 18  1  0  0  0
 15 10  1  0  0  0
 33 27  1  0  0  0
  6 16  1  0  0  0
  6 17  1  0  0  0
 25 26  1  0  0  0
M  END
>  <minimizedAffinity>
-7.47187

>  <minimizedRMSD>
1.03220

$$$$
ChemDiv-C679-6519 MCULE-2803380806 MolPort-007-656-266 PubChem-46258539 ZINC000013368547


 32 35  0  0  0  0  0  0  0  0999 V2000
   17.3237   -9.9124   15.1589 C   0  0  0  0  0  0  0  0  0  0  0  0
   18.0047  -11.0060   15.7166 C   0  0  0  0  0  0  0  0  0  0  0  0
   17.9520  -11.2390   17.0929 C   0  0  0  0  0  0  0  0  0  0  0  0
   17.2196  -10.3822   17.9189 C   0  0  0  0  0  0  0  0  0  0  0  0
   16.5363   -9.2888   17.3771 C   0  0  0  0  0  0  0  0  0  0  0  0
   16.5935   -9.0607   15.9937 C   0  0  0  0  0  0  0  0  0  0  0  0
   15.7961   -8.4332   18.2584 N   0  0  0  0  0  0  0  0  0  0  0  0
   14.6215   -7.6717   17.9392 C   0  0  0  0  0  0  0  0  0  0  0  0
   14.1348   -7.7140   16.7762 O   0  0  0  0  0  0  0  0  0  0  0  0
   16.1294   -8.3600   19.1819 H   0  0  0  0  0  0  0  0  0  0  0  0
   13.9692   -6.8297   18.9691 C   0  0  0  0  0  0  0  0  0  0  0  0
   14.3785   -6.8359   20.3211 C   0  0  0  0  0  0  0  0  0  0  0  0
   15.3984   -7.6195   20.7505 F   0  0  0  0  0  0  0  0  0  0  0  0
   13.7287   -6.0215   21.2545 C   0  0  0  0  0  0  0  0  0  0  0  0
   12.6733   -5.1976   20.8596 C   0  0  0  0  0  0  0  0  0  0  0  0
   12.2614   -5.1842   19.5267 C   0  0  0  0  0  0  0  0  0  0  0  0
   12.9055   -5.9948   18.5893 C   0  0  0  0  0  0  0  0  0  0  0  0
   17.3555   -9.6507   13.7869 O   0  0  0  0  0  0  0  0  0  0  0  0
   17.9652  -10.5305   12.8515 C   0  0  0  0  0  0  0  0  0  0  0  0
   18.5722   -7.7042    7.5127 C   0  0  0  0  0  0  0  0  0  0  0  0
   17.4309   -8.3892    7.7702 N   0  0  0  0  0  0  0  0  0  0  0  0
   17.4512   -8.9581    8.9731 N   0  0  0  0  0  0  0  0  0  0  0  0
   18.5850   -8.7307    9.6690 C   0  0  0  0  0  0  0  0  0  0  0  0
   19.6670   -7.7780    8.8069 S   0  0  0  0  0  0  0  0  0  0  0  0
   18.7704   -9.2334   10.9140 N   0  0  0  0  0  0  0  0  0  0  0  0
   17.7893   -9.9949   11.4759 C   0  0  0  0  0  0  0  0  0  0  0  0
   16.5949  -10.2412   10.7787 C   0  0  0  0  0  0  0  0  0  0  0  0
   16.4420   -9.7036    9.4960 C   0  0  0  0  0  0  0  0  0  0  0  0
   15.3845   -9.9090    8.8432 O   0  0  0  0  0  0  0  0  0  0  0  0
   18.8171   -6.9574    6.2485 C   0  0  0  0  0  0  0  0  0  0  0  0
   20.9793   -7.1325    5.0598 C   0  0  0  0  0  0  0  0  0  0  0  0
   19.6414   -7.8006    5.2958 C   0  0  0  0  0  0  0  0  0  0  0  0
 31 32  1  0  0  0
 32 30  1  0  0  0
 30 20  1  0  0  0
 20 21  2  0  0  0
 21 22  1  0  0  0
 22 23  1  0  0  0
 23 24  1  0  0  0
 23 25  2  0  0  0
 25 26  1  0  0  0
 26 19  1  0  0  0
 19 18  1  0  0  0
 18  1  1  0  0  0
  1  2  2  0  0  0
  2  3  1  0  0  0
  3  4  2  0  0  0
  4  5  1  0  0  0
  5  7  1  0  0  0
  7  8  1  0  0  0
  8  9  2  0  0  0
  8 11  1  0  0  0
 11 12  2  0  0  0
 12 13  1  0  0  0
 12 14  1  0  0  0
 14 15  2  0  0  0
 15 16  1  0  0  0
 16 17  2  0  0  0
  5  6  2  0  0  0
 26 27  2  0  0  0
 27 28  1  0  0  0
 28 29  2  0  0  0
 24 20  1  0  0  0
  6  1  1  0  0  0
 28 22  1  0  0  0
 17 11  1  0  0  0
  7 10  1  0  0  0
M  END
>  <minimizedAffinity>
-7.47137

>  <minimizedRMSD>
0.97776

$$$$
ChemDiv-G756-0790 MCULE-4467205044 MolPort-010-744-674 PubChem-50802632 ZINC000033268592 ZINC33268592


 34 37  0  0  0  0  0  0  0  0999 V2000
   18.1573  -12.2005   15.2331 C   0  0  0  0  0  0  0  0  0  0  0  0
   17.4942  -11.0385   15.8886 C   0  0  0  0  0  0  0  0  0  0  0  0
   17.4504  -11.0400   17.2866 C   0  0  0  0  0  0  0  0  0  0  0  0
   16.8474   -9.9911   17.9813 C   0  0  0  0  0  0  0  0  0  0  0  0
   16.2753   -8.9242   17.2874 C   0  0  0  0  0  0  0  0  0  0  0  0
   16.3184   -8.9160   15.8869 C   0  0  0  0  0  0  0  0  0  0  0  0
   16.9196   -9.9567   15.1695 C   0  0  0  0  0  0  0  0  0  0  0  0
   15.6740   -7.8578   18.0335 N   0  0  0  0  0  0  0  0  0  0  0  0
   14.2716   -7.6408   18.2401 C   0  0  0  0  0  0  0  0  0  0  0  0
   13.4166   -8.4652   17.8223 O   0  0  0  0  0  0  0  0  0  0  0  0
   16.2870   -7.2075   18.4466 H   0  0  0  0  0  0  0  0  0  0  0  0
   13.8084   -6.4098   18.9436 C   0  0  0  0  0  0  0  0  0  0  0  0
   13.0935   -6.7495   20.1270 O   0  0  0  0  0  0  0  0  0  0  0  0
   13.5030   -6.4168   21.4276 C   0  0  0  0  0  0  0  0  0  0  0  0
   14.7689   -6.7624   21.9542 C   0  0  0  0  0  0  0  0  0  0  0  0
   15.6922   -7.4228   21.2122 F   0  0  0  0  0  0  0  0  0  0  0  0
   15.1040   -6.3992   23.2632 C   0  0  0  0  0  0  0  0  0  0  0  0
   14.1964   -5.6910   24.0533 C   0  0  0  0  0  0  0  0  0  0  0  0
   12.9494   -5.3382   23.5350 C   0  0  0  0  0  0  0  0  0  0  0  0
   12.6070   -5.6995   22.2289 C   0  0  0  0  0  0  0  0  0  0  0  0
   16.9064   -9.8439   13.7695 O   0  0  0  0  0  0  0  0  0  0  0  0
   17.8787  -10.3880   12.8882 C   0  0  0  0  0  0  0  0  0  0  0  0
   17.5768   -9.9694   11.4940 C   0  0  0  0  0  0  0  0  0  0  0  0
   16.3473  -10.2812   10.9230 C   0  0  0  0  0  0  0  0  0  0  0  0
   16.0814   -9.8510    9.6245 C   0  0  0  0  0  0  0  0  0  0  0  0
   14.9674  -10.1363    9.1043 O   0  0  0  0  0  0  0  0  0  0  0  0
   17.0180   -9.1294    8.9324 N   0  0  0  0  0  0  0  0  0  0  0  0
   16.7501   -8.7120    7.6591 C   0  0  0  0  0  0  0  0  0  0  0  0
   17.6857   -7.9724    6.9360 C   0  0  0  0  0  0  0  0  0  0  0  0
   18.9077   -7.6568    7.5238 C   0  0  0  0  0  0  0  0  0  0  0  0
   19.1873   -8.0794    8.8220 C   0  0  0  0  0  0  0  0  0  0  0  0
   20.5015   -7.7273    9.4323 C   0  0  0  0  0  0  0  0  0  0  0  0
   18.2252   -8.8244    9.5250 C   0  0  0  0  0  0  0  0  0  0  0  0
   18.4840   -9.2447   10.7934 N   0  0  0  0  0  0  0  0  0  0  0  0
  1  2  1  0  0  0
  2  3  2  0  0  0
  3  4  1  0  0  0
  4  5  2  0  0  0
  5  8  1  0  0  0
  5  6  1  0  0  0
  8  9  1  0  0  0
  9 10  2  0  0  0
  9 12  1  0  0  0
 12 13  1  0  0  0
 13 14  1  0  0  0
 14 15  2  0  0  0
 15 16  1  0  0  0
 15 17  1  0  0  0
 17 18  2  0  0  0
 18 19  1  0  0  0
 19 20  2  0  0  0
 20 14  1  0  0  0
  6  7  2  0  0  0
  7 21  1  0  0  0
  7  2  1  0  0  0
 21 22  1  0  0  0
 22 23  1  0  0  0
 23 24  2  0  0  0
 24 25  1  0  0  0
 25 26  2  0  0  0
 25 27  1  0  0  0
 27 28  1  0  0  0
 28 29  2  0  0  0
 29 30  1  0  0  0
 30 31  2  0  0  0
 31 32  1  0  0  0
 31 33  1  0  0  0
 33 34  2  0  0  0
 33 27  1  0  0  0
 34 23  1  0  0  0
  8 11  1  0  0  0
M  END
>  <minimizedAffinity>
-7.46859

>  <minimizedRMSD>
1.64997

$$$$
ChemDiv-C679-4543 MCULE-6862466383 MolPort-007-655-918 PubChem-20874283 ZINC000013368186


 32 35  0  0  0  0  0  0  0  0999 V2000
   16.8052  -10.2455   13.8237 O   0  0  0  0  0  0  0  0  0  0  0  0
   17.1733   -9.6412   15.0282 C   0  0  0  0  0  0  0  0  0  0  0  0
   18.5123   -9.3405   15.3232 C   0  0  0  0  0  0  0  0  0  0  0  0
   18.8459   -8.7365   16.5379 C   0  0  0  0  0  0  0  0  0  0  0  0
   17.8451   -8.4296   17.4635 C   0  0  0  0  0  0  0  0  0  0  0  0
   16.5067   -8.7231   17.1826 C   0  0  0  0  0  0  0  0  0  0  0  0
   16.1788   -9.3301   15.9607 C   0  0  0  0  0  0  0  0  0  0  0  0
   15.5084   -8.3912   18.1573 N   0  0  0  0  0  0  0  0  0  0  0  0
   14.3012   -7.6524   17.9310 C   0  0  0  0  0  0  0  0  0  0  0  0
   14.0115   -7.2115   16.7854 O   0  0  0  0  0  0  0  0  0  0  0  0
   15.6690   -8.7031   19.0771 H   0  0  0  0  0  0  0  0  0  0  0  0
   13.3812   -7.4038   19.0799 C   0  0  0  0  0  0  0  0  0  0  0  0
   11.9416   -7.7887   18.7087 C   0  0  0  0  0  0  0  0  0  0  0  0
   10.9397   -7.0870   19.6203 C   0  0  0  0  0  0  0  0  0  0  0  0
   11.0304   -5.5598   19.4888 C   0  0  0  0  0  0  0  0  0  0  0  0
   12.4167   -5.0588   19.0618 C   0  0  0  0  0  0  0  0  0  0  0  0
   13.5248   -5.9628   19.5978 C   0  0  0  0  0  0  0  0  0  0  0  0
   17.7458  -10.8625   12.9547 C   0  0  0  0  0  0  0  0  0  0  0  0
   18.6741   -7.7449    7.8289 C   0  0  0  0  0  0  0  0  0  0  0  0
   17.5138   -8.4286    7.9837 N   0  0  0  0  0  0  0  0  0  0  0  0
   17.4619   -9.0651    9.1512 N   0  0  0  0  0  0  0  0  0  0  0  0
   18.5606   -8.8976    9.9171 C   0  0  0  0  0  0  0  0  0  0  0  0
   19.7011   -7.9177    9.1684 S   0  0  0  0  0  0  0  0  0  0  0  0
   18.6726   -9.4740   11.1387 N   0  0  0  0  0  0  0  0  0  0  0  0
   17.6521  -10.2489   11.6038 C   0  0  0  0  0  0  0  0  0  0  0  0
   16.4929  -10.4342   10.8323 C   0  0  0  0  0  0  0  0  0  0  0  0
   16.4160   -9.8216    9.5767 C   0  0  0  0  0  0  0  0  0  0  0  0
   15.3914   -9.9706    8.8592 O   0  0  0  0  0  0  0  0  0  0  0  0
   19.0056   -6.9477    6.6128 C   0  0  0  0  0  0  0  0  0  0  0  0
   20.8980   -6.9074    5.0193 C   0  0  0  0  0  0  0  0  0  0  0  0
   19.8125   -7.7729    5.6232 C   0  0  0  0  0  0  0  0  0  0  0  0
   18.9154   -8.2900    4.5141 C   0  0  0  0  0  0  0  0  0  0  0  0
 30 31  1  0  0  0
 31 32  1  0  0  0
 31 29  1  0  0  0
 29 19  1  0  0  0
 19 20  2  0  0  0
 20 21  1  0  0  0
 21 22  1  0  0  0
 22 23  1  0  0  0
 22 24  2  0  0  0
 24 25  1  0  0  0
 25 18  1  0  0  0
 18  1  1  0  0  0
  1  2  1  0  0  0
  2  3  2  0  0  0
  3  4  1  0  0  0
  4  5  2  0  0  0
  5  6  1  0  0  0
  6  8  1  0  0  0
  8  9  1  0  0  0
  9 10  2  0  0  0
  9 12  1  0  0  0
 12 13  1  0  0  0
 13 14  1  0  0  0
 14 15  1  0  0  0
 15 16  1  0  0  0
 16 17  1  0  0  0
  6  7  2  0  0  0
 25 26  2  0  0  0
 26 27  1  0  0  0
 27 28  2  0  0  0
 23 19  1  0  0  0
  7  2  1  0  0  0
 27 21  1  0  0  0
 17 12  1  0  0  0
  8 11  1  0  0  0
M  END
>  <minimizedAffinity>
-7.46047

>  <minimizedRMSD>
1.97181

$$$$
ChemDiv-G756-0110 MCULE-1103550196 MolPort-007-878-983 PubChem-22580428 ZINC000021099493 ZINC21099493


 24 26  0  0  0  0  0  0  0  0999 V2000
   17.4511   -9.6273   13.4054 O   0  0  0  0  0  0  0  0  0  0  0  0
   16.8115   -9.5770   17.0497 C   0  0  0  0  0  0  0  0  0  0  0  0
   16.8580   -9.1975   15.6995 C   0  0  0  0  0  0  0  0  0  0  0  0
   17.4241  -10.0420   14.7393 C   0  0  0  0  0  0  0  0  0  0  0  0
   17.9497  -11.2816   15.1365 C   0  0  0  0  0  0  0  0  0  0  0  0
   17.9066  -11.6658   16.4789 C   0  0  0  0  0  0  0  0  0  0  0  0
   17.3389  -10.8151   17.4310 C   0  0  0  0  0  0  0  0  0  0  0  0
   14.6595   -7.0444   19.0600 C   0  0  0  0  0  0  0  0  0  0  0  0
   15.1196   -7.8491   17.8988 C   0  0  0  0  0  0  0  0  0  0  0  0
   14.5198   -7.7414   16.7968 O   0  0  0  0  0  0  0  0  0  0  0  0
   16.2374   -8.7321   18.0564 N   0  0  0  0  0  0  0  0  0  0  0  0
   16.6542   -8.7617   18.9478 H   0  0  0  0  0  0  0  0  0  0  0  0
   18.4795  -10.0121   12.5025 C   0  0  0  0  0  0  0  0  0  0  0  0
   18.0932   -9.6357   11.1171 C   0  0  0  0  0  0  0  0  0  0  0  0
   16.8867  -10.0812   10.5856 C   0  0  0  0  0  0  0  0  0  0  0  0
   16.5365   -9.6911    9.2940 C   0  0  0  0  0  0  0  0  0  0  0  0
   15.4451  -10.0976    8.8085 O   0  0  0  0  0  0  0  0  0  0  0  0
   17.3692   -8.8785    8.5718 N   0  0  0  0  0  0  0  0  0  0  0  0
   17.0248   -8.4966    7.3056 C   0  0  0  0  0  0  0  0  0  0  0  0
   17.8606   -7.6660    6.5569 C   0  0  0  0  0  0  0  0  0  0  0  0
   19.0594   -7.2237    7.1128 C   0  0  0  0  0  0  0  0  0  0  0  0
   19.4103   -7.6133    8.4040 C   0  0  0  0  0  0  0  0  0  0  0  0
   18.5531   -8.4456    9.1275 C   0  0  0  0  0  0  0  0  0  0  0  0
   18.8972   -8.8239   10.3857 N   0  0  0  0  0  0  0  0  0  0  0  0
  8  9  1  0  0  0
  9 10  2  0  0  0
  9 11  1  0  0  0
 11  2  1  0  0  0
  2  3  2  0  0  0
  3  4  1  0  0  0
  4  1  1  0  0  0
  4  5  2  0  0  0
  1 13  1  0  0  0
 13 14  1  0  0  0
 14 15  2  0  0  0
 15 16  1  0  0  0
 16 17  2  0  0  0
 16 18  1  0  0  0
 18 19  1  0  0  0
 19 20  2  0  0  0
 20 21  1  0  0  0
 21 22  2  0  0  0
 22 23  1  0  0  0
 23 24  2  0  0  0
 23 18  1  0  0  0
 24 14  1  0  0  0
  5  6  1  0  0  0
  6  7  2  0  0  0
  7  2  1  0  0  0
 11 12  1  0  0  0
M  END
>  <minimizedAffinity>
-7.45833

>  <minimizedRMSD>
0.64217

$$$$
ChemDiv-C679-6503 MCULE-3397040926 MolPort-007-656-254 PubChem-20874393 ZINC000020859459


 30 33  0  0  0  0  0  0  0  0999 V2000
   16.8444  -10.4193   13.8507 O   0  0  0  0  0  0  0  0  0  0  0  0
   17.3595   -9.7834   14.9831 C   0  0  0  0  0  0  0  0  0  0  0  0
   18.7320   -9.5242   15.1226 C   0  0  0  0  0  0  0  0  0  0  0  0
   19.2141   -8.8866   16.2682 C   0  0  0  0  0  0  0  0  0  0  0  0
   18.3289   -8.5046   17.2798 C   0  0  0  0  0  0  0  0  0  0  0  0
   16.9588   -8.7563   17.1541 C   0  0  0  0  0  0  0  0  0  0  0  0
   16.4816   -9.3976   16.0009 C   0  0  0  0  0  0  0  0  0  0  0  0
   16.0829   -8.3490   18.2139 N   0  0  0  0  0  0  0  0  0  0  0  0
   14.8349   -7.6542   18.0790 C   0  0  0  0  0  0  0  0  0  0  0  0
   14.3941   -7.3300   16.9435 O   0  0  0  0  0  0  0  0  0  0  0  0
   16.3678   -8.5693   19.1302 H   0  0  0  0  0  0  0  0  0  0  0  0
   14.0624   -7.3153   19.2797 C   0  0  0  0  0  0  0  0  0  0  0  0
   12.8209   -6.6982   19.2967 C   0  0  0  0  0  0  0  0  0  0  0  0
   12.3298   -6.5024   20.5957 C   0  0  0  0  0  0  0  0  0  0  0  0
   13.1729   -6.9598   21.6061 C   0  0  0  0  0  0  0  0  0  0  0  0
   14.5345   -7.6093   20.8617 S   0  0  0  0  0  0  0  0  0  0  0  0
   17.6679  -11.0890   12.9050 C   0  0  0  0  0  0  0  0  0  0  0  0
   17.4000   -9.0890    9.2026 N   0  0  0  0  0  0  0  0  0  0  0  0
   17.4571   -8.3908    8.0710 N   0  0  0  0  0  0  0  0  0  0  0  0
   18.6296   -7.7235    7.9444 C   0  0  0  0  0  0  0  0  0  0  0  0
   19.6521   -7.9693    9.2769 S   0  0  0  0  0  0  0  0  0  0  0  0
   18.5022   -8.9763    9.9735 C   0  0  0  0  0  0  0  0  0  0  0  0
   18.6084   -9.6163   11.1635 N   0  0  0  0  0  0  0  0  0  0  0  0
   17.5783  -10.4006   11.5903 C   0  0  0  0  0  0  0  0  0  0  0  0
   16.4155  -10.5303   10.8130 C   0  0  0  0  0  0  0  0  0  0  0  0
   16.3446   -9.8523    9.5910 C   0  0  0  0  0  0  0  0  0  0  0  0
   15.3170   -9.9506    8.8691 O   0  0  0  0  0  0  0  0  0  0  0  0
   18.9412   -6.8296    6.7970 C   0  0  0  0  0  0  0  0  0  0  0  0
   19.9630   -7.4899    5.8936 C   0  0  0  0  0  0  0  0  0  0  0  0
   19.2560   -8.4051    4.9166 C   0  0  0  0  0  0  0  0  0  0  0  0
 18 19  1  0  0  0
 19 20  2  0  0  0
 20 21  1  0  0  0
 21 22  1  0  0  0
 22 23  2  0  0  0
 23 24  1  0  0  0
 24 17  1  0  0  0
 17  1  1  0  0  0
  1  2  1  0  0  0
  2  3  2  0  0  0
  3  4  1  0  0  0
  4  5  2  0  0  0
  5  6  1  0  0  0
  6  7  2  0  0  0
  6  8  1  0  0  0
  8  9  1  0  0  0
  9 10  2  0  0  0
  9 12  1  0  0  0
 12 13  2  0  0  0
 13 14  1  0  0  0
 14 15  2  0  0  0
 15 16  1  0  0  0
 24 25  2  0  0  0
 25 26  1  0  0  0
 26 27  2  0  0  0
 20 28  1  0  0  0
 28 29  1  0  0  0
 29 30  1  0  0  0
 22 18  1  0  0  0
  7  2  1  0  0  0
 16 12  1  0  0  0
 26 18  1  0  0  0
  8 11  1  0  0  0
M  END
>  <minimizedAffinity>
-7.44816

>  <minimizedRMSD>
1.71098

$$$$
ChemDiv-G756-0782 MCULE-6831732053 MolPort-010-744-669 PubChem-50802618 ZINC000033268587 ZINC33268587


 32 35  0  0  0  0  0  0  0  0999 V2000
   16.7354   -9.9592   16.8214 C   0  0  0  0  0  0  0  0  0  0  0  0
   17.3773  -11.1476   17.1703 C   0  0  0  0  0  0  0  0  0  0  0  0
   18.0275  -11.9085   16.1985 C   0  0  0  0  0  0  0  0  0  0  0  0
   18.0470  -11.4949   14.8630 C   0  0  0  0  0  0  0  0  0  0  0  0
   18.7646  -12.3718   13.8954 C   0  0  0  0  0  0  0  0  0  0  0  0
   17.3978  -10.2871   14.4932 C   0  0  0  0  0  0  0  0  0  0  0  0
   16.7517   -9.5398   15.4849 C   0  0  0  0  0  0  0  0  0  0  0  0
   15.2330   -8.0562   17.6649 C   0  0  0  0  0  0  0  0  0  0  0  0
   14.9993   -7.6081   16.5093 O   0  0  0  0  0  0  0  0  0  0  0  0
   16.0774   -9.2033   17.8472 N   0  0  0  0  0  0  0  0  0  0  0  0
   16.2197   -9.5024   18.7743 H   0  0  0  0  0  0  0  0  0  0  0  0
   11.5970   -5.2956   19.6892 C   0  0  0  0  0  0  0  0  0  0  0  0
   12.8674   -6.0535   19.8297 C   0  0  0  0  0  0  0  0  0  0  0  0
   13.4949   -6.1410   21.0752 C   0  0  0  0  0  0  0  0  0  0  0  0
   14.6896   -6.8539   21.2071 C   0  0  0  0  0  0  0  0  0  0  0  0
   15.2569   -7.4793   20.0928 C   0  0  0  0  0  0  0  0  0  0  0  0
   14.6341   -7.3966   18.8388 C   0  0  0  0  0  0  0  0  0  0  0  0
   13.4348   -6.6789   18.7156 C   0  0  0  0  0  0  0  0  0  0  0  0
   17.3509   -9.7721   13.1878 O   0  0  0  0  0  0  0  0  0  0  0  0
   18.4787   -9.4541   12.3849 C   0  0  0  0  0  0  0  0  0  0  0  0
   18.0706   -9.3857   10.9572 C   0  0  0  0  0  0  0  0  0  0  0  0
   16.8532   -9.9241   10.5551 C   0  0  0  0  0  0  0  0  0  0  0  0
   16.4835   -9.8218    9.2155 C   0  0  0  0  0  0  0  0  0  0  0  0
   15.3810  -10.3140    8.8486 O   0  0  0  0  0  0  0  0  0  0  0  0
   17.3078   -9.1945    8.3194 N   0  0  0  0  0  0  0  0  0  0  0  0
   16.9379   -9.0983    7.0075 C   0  0  0  0  0  0  0  0  0  0  0  0
   17.7583   -8.4618    6.0766 C   0  0  0  0  0  0  0  0  0  0  0  0
   18.9699   -7.9178    6.4943 C   0  0  0  0  0  0  0  0  0  0  0  0
   19.3530   -8.0125    7.8309 C   0  0  0  0  0  0  0  0  0  0  0  0
   20.6549   -7.4223    8.2553 C   0  0  0  0  0  0  0  0  0  0  0  0
   18.5056   -8.6608    8.7454 C   0  0  0  0  0  0  0  0  0  0  0  0
   18.8660   -8.7613   10.0538 N   0  0  0  0  0  0  0  0  0  0  0  0
 12 13  1  0  0  0
 13 14  2  0  0  0
 14 15  1  0  0  0
 15 16  2  0  0  0
 16 17  1  0  0  0
 17 18  2  0  0  0
 17  8  1  0  0  0
 18 13  1  0  0  0
  8  9  2  0  0  0
  8 10  1  0  0  0
 10  1  1  0  0  0
  1  2  2  0  0  0
  2  3  1  0  0  0
  3  4  2  0  0  0
  4  5  1  0  0  0
  4  6  1  0  0  0
  6 19  1  0  0  0
  6  7  2  0  0  0
 19 20  1  0  0  0
 20 21  1  0  0  0
 21 22  2  0  0  0
 22 23  1  0  0  0
 23 24  2  0  0  0
 23 25  1  0  0  0
 25 26  1  0  0  0
 26 27  2  0  0  0
 27 28  1  0  0  0
 28 29  2  0  0  0
 29 30  1  0  0  0
 29 31  1  0  0  0
 31 32  2  0  0  0
 31 25  1  0  0  0
 32 21  1  0  0  0
  7  1  1  0  0  0
 10 11  1  0  0  0
M  END
>  <minimizedAffinity>
-7.44704

>  <minimizedRMSD>
1.14105

$$$$
ChemDiv-G756-0823 MCULE-8673976140 MolPort-007-879-415 PubChem-46356227 ZINC000033067921 ZINC33067921


 34 37  0  0  0  0  0  0  0  0999 V2000
   17.3246   -9.7649   16.6613 C   0  0  0  0  0  0  0  0  0  0  0  0
   17.7473  -11.0579   16.9821 C   0  0  0  0  0  0  0  0  0  0  0  0
   18.1328  -11.9461   15.9756 C   0  0  0  0  0  0  0  0  0  0  0  0
   18.0995  -11.5488   14.6363 C   0  0  0  0  0  0  0  0  0  0  0  0
   18.5197  -12.5157   13.5836 C   0  0  0  0  0  0  0  0  0  0  0  0
   17.6772  -10.2532   14.2970 C   0  0  0  0  0  0  0  0  0  0  0  0
   17.2925   -9.3678   15.3167 C   0  0  0  0  0  0  0  0  0  0  0  0
   15.4630   -7.4417   19.0704 N   0  0  0  0  0  0  0  0  0  0  0  0
   15.6343   -8.3598   17.9829 C   0  0  0  0  0  0  0  0  0  0  0  0
   14.6531   -8.7036   17.2702 O   0  0  0  0  0  0  0  0  0  0  0  0
   16.9436   -8.8812   17.7248 N   0  0  0  0  0  0  0  0  0  0  0  0
   16.2656   -7.2348   19.6018 H   0  0  0  0  0  0  0  0  0  0  0  0
   17.6576   -8.6033   18.3430 H   0  0  0  0  0  0  0  0  0  0  0  0
   10.6570   -4.8348   20.7703 C   0  0  0  0  0  0  0  0  0  0  0  0
   11.9001   -5.5114   20.3183 C   0  0  0  0  0  0  0  0  0  0  0  0
   12.8799   -5.8694   21.2487 C   0  0  0  0  0  0  0  0  0  0  0  0
   14.0493   -6.5063   20.8226 C   0  0  0  0  0  0  0  0  0  0  0  0
   14.2470   -6.7923   19.4671 C   0  0  0  0  0  0  0  0  0  0  0  0
   13.2558   -6.4358   18.5389 C   0  0  0  0  0  0  0  0  0  0  0  0
   12.0874   -5.7948   18.9628 C   0  0  0  0  0  0  0  0  0  0  0  0
   17.6490   -9.8654   12.9530 O   0  0  0  0  0  0  0  0  0  0  0  0
   16.5100  -10.0432   12.1210 C   0  0  0  0  0  0  0  0  0  0  0  0
   16.8650   -9.7039   10.7174 C   0  0  0  0  0  0  0  0  0  0  0  0
   16.1039  -10.2041    9.6656 C   0  0  0  0  0  0  0  0  0  0  0  0
   16.4857   -9.9059    8.3589 C   0  0  0  0  0  0  0  0  0  0  0  0
   15.7946  -10.3576    7.4043 O   0  0  0  0  0  0  0  0  0  0  0  0
   17.5953   -9.1380    8.1238 N   0  0  0  0  0  0  0  0  0  0  0  0
   17.9658   -8.8542    6.8395 C   0  0  0  0  0  0  0  0  0  0  0  0
   19.0965   -8.0823    6.5748 C   0  0  0  0  0  0  0  0  0  0  0  0
   19.8545   -7.5946    7.6364 C   0  0  0  0  0  0  0  0  0  0  0  0
   19.4821   -7.8803    8.9483 C   0  0  0  0  0  0  0  0  0  0  0  0
   20.3085   -7.3462   10.0692 C   0  0  0  0  0  0  0  0  0  0  0  0
   18.3377   -8.6614    9.1838 C   0  0  0  0  0  0  0  0  0  0  0  0
   17.9639   -8.9524   10.4598 N   0  0  0  0  0  0  0  0  0  0  0  0
 14 15  1  0  0  0
 15 16  2  0  0  0
 16 17  1  0  0  0
 17 18  2  0  0  0
 18  8  1  0  0  0
 18 19  1  0  0  0
  8  9  1  0  0  0
  9 10  2  0  0  0
  9 11  1  0  0  0
 11  1  1  0  0  0
  1  2  2  0  0  0
  2  3  1  0  0  0
  3  4  2  0  0  0
  4  5  1  0  0  0
  4  6  1  0  0  0
  6 21  1  0  0  0
  6  7  2  0  0  0
 21 22  1  0  0  0
 22 23  1  0  0  0
 23 24  2  0  0  0
 24 25  1  0  0  0
 25 26  2  0  0  0
 25 27  1  0  0  0
 27 28  1  0  0  0
 28 29  2  0  0  0
 29 30  1  0  0  0
 30 31  2  0  0  0
 31 32  1  0  0  0
 31 33  1  0  0  0
 33 34  2  0  0  0
 33 27  1  0  0  0
 34 23  1  0  0  0
  7  1  1  0  0  0
 19 20  2  0  0  0
 20 15  1  0  0  0
  8 12  1  0  0  0
 11 13  1  0  0  0
M  END
>  <minimizedAffinity>
-7.43188

>  <minimizedRMSD>
1.27230

$$$$
ChemDiv-G357-4834 MCULE-2419652191 MolPort-010-772-416 PubChem-50794131 ZINC000041089646 ZINC41089646


 36 39  0  0  0  0  0  0  0  0999 V2000
   16.8197   -9.3747   14.5463 C   0  0  0  0  0  0  0  0  0  0  0  0
   16.1073   -9.2073   15.7646 C   0  0  0  0  0  0  0  0  0  0  0  0
   14.6149   -9.3056   15.8082 C   0  0  0  0  0  0  0  0  0  0  0  0
   16.8241   -9.0224   16.9712 C   0  0  0  0  0  0  0  0  0  0  0  0
   18.2193   -9.0631   16.9647 C   0  0  0  0  0  0  0  0  0  0  0  0
   18.9171   -9.2394   15.7737 C   0  0  0  0  0  0  0  0  0  0  0  0
   18.2212   -9.3859   14.5764 C   0  0  0  0  0  0  0  0  0  0  0  0
   16.1654   -8.8341   18.2300 N   0  0  0  0  0  0  0  0  0  0  0  0
   15.1073   -7.8970   18.4574 C   0  0  0  0  0  0  0  0  0  0  0  0
   14.7849   -7.0635   17.5707 O   0  0  0  0  0  0  0  0  0  0  0  0
   16.4606   -9.3864   18.9896 H   0  0  0  0  0  0  0  0  0  0  0  0
   14.4198   -7.8615   19.7785 C   0  0  0  0  0  0  0  0  0  0  0  0
   14.6290   -6.5993   20.4034 O   0  0  0  0  0  0  0  0  0  0  0  0
   14.5590   -6.4138   21.7908 C   0  0  0  0  0  0  0  0  0  0  0  0
   13.4811   -5.6957   22.3415 C   0  0  0  0  0  0  0  0  0  0  0  0
   12.4238   -5.1437   21.4387 C   0  0  0  0  0  0  0  0  0  0  0  0
   13.4028   -5.5116   23.7364 C   0  0  0  0  0  0  0  0  0  0  0  0
   12.2747   -4.7626   24.3604 C   0  0  0  0  0  0  0  0  0  0  0  0
   14.3937   -6.0432   24.5675 C   0  0  0  0  0  0  0  0  0  0  0  0
   15.4613   -6.7568   24.0225 C   0  0  0  0  0  0  0  0  0  0  0  0
   15.5440   -6.9423   22.6417 C   0  0  0  0  0  0  0  0  0  0  0  0
   16.1684   -9.5472   13.2233 C   0  0  0  0  0  0  0  0  0  0  0  0
   15.0587  -10.1374   13.1156 O   0  0  0  0  0  0  0  0  0  0  0  0
   16.7944   -9.0305   12.0823 O   0  0  0  0  0  0  0  0  0  0  0  0
   17.9465   -9.6290   11.4981 C   0  0  0  0  0  0  0  0  0  0  0  0
   20.1744   -6.7408    5.1610 C   0  0  0  0  0  0  0  0  0  0  0  0
   19.5548   -7.4308    6.3232 C   0  0  0  0  0  0  0  0  0  0  0  0
   19.9711   -7.2961    7.6522 C   0  0  0  0  0  0  0  0  0  0  0  0
   19.0783   -8.1357    8.2893 C   0  0  0  0  0  0  0  0  0  0  0  0
   19.0045   -8.4177    9.6133 N   0  0  0  0  0  0  0  0  0  0  0  0
   18.0402   -9.2840   10.0498 C   0  0  0  0  0  0  0  0  0  0  0  0
   17.1470   -9.8804    9.1362 C   0  0  0  0  0  0  0  0  0  0  0  0
   17.2652   -9.5598    7.7781 C   0  0  0  0  0  0  0  0  0  0  0  0
   16.4925  -10.0683    6.9244 O   0  0  0  0  0  0  0  0  0  0  0  0
   18.2370   -8.6903    7.4119 N   0  0  0  0  0  0  0  0  0  0  0  0
   18.5342   -8.2603    6.2280 O   0  0  0  0  0  0  0  0  0  0  0  0
 26 27  1  0  0  0
 27 28  2  0  0  0
 28 29  1  0  0  0
 29 30  2  0  0  0
 30 31  1  0  0  0
 31 25  1  0  0  0
 31 32  2  0  0  0
 25 24  1  0  0  0
 24 22  1  0  0  0
 22 23  2  0  0  0
 22  1  1  0  0  0
  1  2  2  0  0  0
  2  3  1  0  0  0
  2  4  1  0  0  0
  4  8  1  0  0  0
  4  5  2  0  0  0
  8  9  1  0  0  0
  9 10  2  0  0  0
  9 12  1  0  0  0
 12 13  1  0  0  0
 13 14  1  0  0  0
 14 15  2  0  0  0
 15 16  1  0  0  0
 15 17  1  0  0  0
 17 18  1  0  0  0
 17 19  2  0  0  0
 19 20  1  0  0  0
 20 21  2  0  0  0
 21 14  1  0  0  0
  5  6  1  0  0  0
  6  7  2  0  0  0
  7  1  1  0  0  0
 32 33  1  0  0  0
 33 34  2  0  0  0
 33 35  1  0  0  0
 35 36  1  0  0  0
 35 29  1  0  0  0
 36 27  1  0  0  0
  8 11  1  0  0  0
M  END
>  <minimizedAffinity>
-7.43013

>  <minimizedRMSD>
2.13961

$$$$
ChemDiv-G355-3258 MCULE-7317822427 MolPort-010-743-022 PubChem-50793986 ZINC000035428397 ZINC35428397


 26 28  0  0  0  0  0  0  0  0999 V2000
   16.9001   -9.7018   16.6407 C   0  0  0  0  0  0  0  0  0  0  0  0
   17.4196  -10.9340   17.0379 C   0  0  0  0  0  0  0  0  0  0  0  0
   17.9522  -11.8114   16.0930 C   0  0  0  0  0  0  0  0  0  0  0  0
   17.9742  -11.4724   14.7367 C   0  0  0  0  0  0  0  0  0  0  0  0
   18.5616  -12.4719   13.8007 C   0  0  0  0  0  0  0  0  0  0  0  0
   17.4483  -10.2214   14.3177 C   0  0  0  0  0  0  0  0  0  0  0  0
   16.9189   -9.3570   15.2830 C   0  0  0  0  0  0  0  0  0  0  0  0
   15.1731   -8.0273   17.5289 C   0  0  0  0  0  0  0  0  0  0  0  0
   14.4868   -8.0202   16.4729 O   0  0  0  0  0  0  0  0  0  0  0  0
   16.3595   -8.8261   17.6394 N   0  0  0  0  0  0  0  0  0  0  0  0
   16.8538   -8.7670   18.4888 H   0  0  0  0  0  0  0  0  0  0  0  0
   14.9526   -7.9159   19.9815 C   0  0  0  0  0  0  0  0  0  0  0  0
   14.7514   -7.1746   18.6742 C   0  0  0  0  0  0  0  0  0  0  0  0
   17.4159   -9.7731   12.9873 O   0  0  0  0  0  0  0  0  0  0  0  0
   18.5196   -9.2421   12.2682 C   0  0  0  0  0  0  0  0  0  0  0  0
   18.2048   -9.2221   10.8156 C   0  0  0  0  0  0  0  0  0  0  0  0
   17.0397   -9.8619   10.3449 C   0  0  0  0  0  0  0  0  0  0  0  0
   16.7517   -9.8057    8.9758 C   0  0  0  0  0  0  0  0  0  0  0  0
   15.7255  -10.3638    8.5065 O   0  0  0  0  0  0  0  0  0  0  0  0
   17.6092   -9.1314    8.1729 N   0  0  0  0  0  0  0  0  0  0  0  0
   17.5443   -8.9477    6.8940 O   0  0  0  0  0  0  0  0  0  0  0  0
   18.5833   -8.2286    6.5170 C   0  0  0  0  0  0  0  0  0  0  0  0
   18.8420   -7.8195    5.1117 C   0  0  0  0  0  0  0  0  0  0  0  0
   19.3964   -7.9086    7.6097 C   0  0  0  0  0  0  0  0  0  0  0  0
   18.7052   -8.5236    8.6358 C   0  0  0  0  0  0  0  0  0  0  0  0
   19.0249   -8.5504    9.9529 N   0  0  0  0  0  0  0  0  0  0  0  0
 12 13  1  0  0  0
 13  8  1  0  0  0
  8  9  2  0  0  0
  8 10  1  0  0  0
 10  1  1  0  0  0
  1  2  2  0  0  0
  2  3  1  0  0  0
  3  4  2  0  0  0
  4  5  1  0  0  0
  4  6  1  0  0  0
  6 14  1  0  0  0
  6  7  2  0  0  0
 14 15  1  0  0  0
 15 16  1  0  0  0
 16 17  2  0  0  0
 17 18  1  0  0  0
 18 19  2  0  0  0
 18 20  1  0  0  0
 20 21  1  0  0  0
 21 22  1  0  0  0
 22 23  1  0  0  0
 22 24  2  0  0  0
 24 25  1  0  0  0
 25 26  2  0  0  0
 25 20  1  0  0  0
 26 16  1  0  0  0
  7  1  1  0  0  0
 10 11  1  0  0  0
M  END
>  <minimizedAffinity>
-7.42104

>  <minimizedRMSD>
0.93994

$$$$
ChemDiv-C679-6518 MCULE-2266700670 MolPort-007-656-265 PubChem-46258538 ZINC000013368544


 32 35  0  0  0  0  0  0  0  0999 V2000
   17.4589  -10.2117   14.9373 C   0  0  0  0  0  0  0  0  0  0  0  0
   18.2139  -11.2859   15.4355 C   0  0  0  0  0  0  0  0  0  0  0  0
   18.1800  -11.5977   16.7969 C   0  0  0  0  0  0  0  0  0  0  0  0
   17.3923  -10.8395   17.6672 C   0  0  0  0  0  0  0  0  0  0  0  0
   16.6333   -9.7677   17.1842 C   0  0  0  0  0  0  0  0  0  0  0  0
   16.6739   -9.4589   15.8159 C   0  0  0  0  0  0  0  0  0  0  0  0
   15.8431   -9.0095   18.1099 N   0  0  0  0  0  0  0  0  0  0  0  0
   14.9886   -7.8963   17.8028 C   0  0  0  0  0  0  0  0  0  0  0  0
   14.8225   -7.5254   16.6090 O   0  0  0  0  0  0  0  0  0  0  0  0
   15.8912   -9.2802   19.0552 H   0  0  0  0  0  0  0  0  0  0  0  0
   14.2924   -7.1877   18.8914 C   0  0  0  0  0  0  0  0  0  0  0  0
   14.7806   -7.2513   20.2048 C   0  0  0  0  0  0  0  0  0  0  0  0
   14.1220   -6.5768   21.2376 C   0  0  0  0  0  0  0  0  0  0  0  0
   12.9701   -5.8343   20.9649 C   0  0  0  0  0  0  0  0  0  0  0  0
   12.4766   -5.7660   19.6594 C   0  0  0  0  0  0  0  0  0  0  0  0
   11.2532   -4.9736   19.3684 C   0  0  0  0  0  0  0  0  0  0  0  0
   13.1353   -6.4399   18.6264 C   0  0  0  0  0  0  0  0  0  0  0  0
   17.4691   -9.8732   13.5819 O   0  0  0  0  0  0  0  0  0  0  0  0
   18.1403  -10.6518   12.6002 C   0  0  0  0  0  0  0  0  0  0  0  0
   17.5210   -8.8818    8.8235 N   0  0  0  0  0  0  0  0  0  0  0  0
   17.4703   -8.2554    7.6503 N   0  0  0  0  0  0  0  0  0  0  0  0
   18.6203   -7.5925    7.3777 C   0  0  0  0  0  0  0  0  0  0  0  0
   19.7724   -7.7790    8.6103 S   0  0  0  0  0  0  0  0  0  0  0  0
   18.6928   -8.7312    9.4759 C   0  0  0  0  0  0  0  0  0  0  0  0
   18.9135   -9.3002   10.6863 N   0  0  0  0  0  0  0  0  0  0  0  0
   17.9280  -10.0490   11.2580 C   0  0  0  0  0  0  0  0  0  0  0  0
   16.6961  -10.2178   10.6051 C   0  0  0  0  0  0  0  0  0  0  0  0
   16.5087   -9.6154    9.3560 C   0  0  0  0  0  0  0  0  0  0  0  0
   15.4178   -9.7532    8.7417 O   0  0  0  0  0  0  0  0  0  0  0  0
   18.8476   -6.8323    6.1156 C   0  0  0  0  0  0  0  0  0  0  0  0
   19.6927   -7.6381    5.1420 C   0  0  0  0  0  0  0  0  0  0  0  0
   21.0928   -7.0603    5.0474 C   0  0  0  0  0  0  0  0  0  0  0  0
 20 21  1  0  0  0
 21 22  2  0  0  0
 22 23  1  0  0  0
 23 24  1  0  0  0
 24 25  2  0  0  0
 25 26  1  0  0  0
 26 19  1  0  0  0
 19 18  1  0  0  0
 18  1  1  0  0  0
  1  2  2  0  0  0
  2  3  1  0  0  0
  3  4  2  0  0  0
  4  5  1  0  0  0
  5  6  2  0  0  0
  5  7  1  0  0  0
  7  8  1  0  0  0
  8  9  2  0  0  0
  8 11  1  0  0  0
 11 12  2  0  0  0
 12 13  1  0  0  0
 13 14  2  0  0  0
 14 15  1  0  0  0
 15 16  1  0  0  0
 15 17  2  0  0  0
 26 27  2  0  0  0
 27 28  1  0  0  0
 28 29  2  0  0  0
 22 30  1  0  0  0
 30 31  1  0  0  0
 31 32  1  0  0  0
 24 20  1  0  0  0
  6  1  1  0  0  0
 17 11  1  0  0  0
 28 20  1  0  0  0
  7 10  1  0  0  0
M  END
>  <minimizedAffinity>
-7.41523

>  <minimizedRMSD>
0.98293

$$$$
ChemDiv-C679-5365 MCULE-8102348693 MolPort-010-797-211 PubChem-53043747 ZINC000064775671 ZINC64775671


 26 28  0  0  0  0  0  0  0  0999 V2000
   16.6301   -9.2603   16.6803 C   0  0  0  0  0  0  0  0  0  0  0  0
   16.2195   -8.9086   15.3854 C   0  0  0  0  0  0  0  0  0  0  0  0
   16.6602   -9.6346   14.2745 C   0  0  0  0  0  0  0  0  0  0  0  0
   17.5227  -10.7261   14.4631 C   0  0  0  0  0  0  0  0  0  0  0  0
   17.9354  -11.0817   15.7493 C   0  0  0  0  0  0  0  0  0  0  0  0
   17.4897  -10.3502   16.8532 C   0  0  0  0  0  0  0  0  0  0  0  0
   15.0058   -7.7384   17.9564 C   0  0  0  0  0  0  0  0  0  0  0  0
   14.2089   -7.6121   16.9892 O   0  0  0  0  0  0  0  0  0  0  0  0
   16.1948   -8.5348   17.8380 N   0  0  0  0  0  0  0  0  0  0  0  0
   16.7710   -8.5883   18.6345 H   0  0  0  0  0  0  0  0  0  0  0  0
   14.9336   -7.9732   20.4161 C   0  0  0  0  0  0  0  0  0  0  0  0
   14.6981   -7.0439   19.2413 C   0  0  0  0  0  0  0  0  0  0  0  0
   13.2623   -6.5564   19.2503 C   0  0  0  0  0  0  0  0  0  0  0  0
   16.2284   -9.2523   13.0021 O   0  0  0  0  0  0  0  0  0  0  0  0
   15.9587  -10.1906   11.9687 C   0  0  0  0  0  0  0  0  0  0  0  0
   16.6540   -9.7733   10.7228 C   0  0  0  0  0  0  0  0  0  0  0  0
   16.1484  -10.1663    9.4764 C   0  0  0  0  0  0  0  0  0  0  0  0
   16.8030   -9.7395    8.3162 C   0  0  0  0  0  0  0  0  0  0  0  0
   16.3594  -10.0901    7.1905 O   0  0  0  0  0  0  0  0  0  0  0  0
   17.9126   -8.9472    8.4314 N   0  0  0  0  0  0  0  0  0  0  0  0
   18.6892   -8.4265    7.4305 C   0  0  0  0  0  0  0  0  0  0  0  0
   18.4400   -8.6538    5.9769 C   0  0  0  0  0  0  0  0  0  0  0  0
   19.7644   -7.6431    7.8602 C   0  0  0  0  0  0  0  0  0  0  0  0
   19.7247   -7.6131    9.5521 S   0  0  0  0  0  0  0  0  0  0  0  0
   18.3659   -8.5819    9.6511 C   0  0  0  0  0  0  0  0  0  0  0  0
   17.7553   -8.9773   10.7948 N   0  0  0  0  0  0  0  0  0  0  0  0
 11 12  1  0  0  0
 12 13  1  0  0  0
 12  7  1  0  0  0
  7  8  2  0  0  0
  7  9  1  0  0  0
  9  1  1  0  0  0
  1  2  2  0  0  0
  2  3  1  0  0  0
  3 14  1  0  0  0
  3  4  2  0  0  0
 14 15  1  0  0  0
 15 16  1  0  0  0
 16 17  2  0  0  0
 17 18  1  0  0  0
 18 19  2  0  0  0
 18 20  1  0  0  0
 20 21  1  0  0  0
 21 22  1  0  0  0
 21 23  2  0  0  0
 23 24  1  0  0  0
 24 25  1  0  0  0
 25 26  2  0  0  0
 25 20  1  0  0  0
 26 16  1  0  0  0
  4  5  1  0  0  0
  5  6  2  0  0  0
  6  1  1  0  0  0
  9 10  1  0  0  0
M  END
>  <minimizedAffinity>
-7.40413

>  <minimizedRMSD>
1.09460

$$$$
ChemDiv-C679-4040 MCULE-1003118593 MolPort-007-655-765 PubChem-46258310 ZINC000009858705


 30 33  0  0  0  0  0  0  0  0999 V2000
   17.3544   -9.9327   15.0956 C   0  0  0  0  0  0  0  0  0  0  0  0
   18.0045  -11.0544   15.6342 C   0  0  0  0  0  0  0  0  0  0  0  0
   17.9493  -11.3069   17.0069 C   0  0  0  0  0  0  0  0  0  0  0  0
   17.2452  -10.4416   17.8488 C   0  0  0  0  0  0  0  0  0  0  0  0
   16.5968   -9.3178   17.3266 C   0  0  0  0  0  0  0  0  0  0  0  0
   16.6542   -9.0713   15.9462 C   0  0  0  0  0  0  0  0  0  0  0  0
   15.8779   -8.4583   18.2216 N   0  0  0  0  0  0  0  0  0  0  0  0
   14.6932   -7.7035   17.9228 C   0  0  0  0  0  0  0  0  0  0  0  0
   14.2197   -7.6891   16.7541 O   0  0  0  0  0  0  0  0  0  0  0  0
   16.2335   -8.3772   19.1361 H   0  0  0  0  0  0  0  0  0  0  0  0
   14.0332   -6.9282   18.9879 C   0  0  0  0  0  0  0  0  0  0  0  0
   12.9349   -6.1057   18.6928 C   0  0  0  0  0  0  0  0  0  0  0  0
   12.3087   -5.3714   19.7047 C   0  0  0  0  0  0  0  0  0  0  0  0
   12.7760   -5.4539   21.0189 C   0  0  0  0  0  0  0  0  0  0  0  0
   13.8702   -6.2689   21.3212 C   0  0  0  0  0  0  0  0  0  0  0  0
   14.4513   -6.3774   22.9683 Cl  0  0  0  0  0  0  0  0  0  0  0  0
   14.4956   -7.0041   20.3098 C   0  0  0  0  0  0  0  0  0  0  0  0
   17.3824   -9.6566   13.7264 O   0  0  0  0  0  0  0  0  0  0  0  0
   18.0135  -10.5132   12.7836 C   0  0  0  0  0  0  0  0  0  0  0  0
   17.4660   -8.9371    8.9115 N   0  0  0  0  0  0  0  0  0  0  0  0
   17.4361   -8.3711    7.7074 N   0  0  0  0  0  0  0  0  0  0  0  0
   18.5723   -7.6828    7.4420 C   0  0  0  0  0  0  0  0  0  0  0  0
   19.6795   -7.7546    8.7256 S   0  0  0  0  0  0  0  0  0  0  0  0
   18.6049   -8.7067    9.5983 C   0  0  0  0  0  0  0  0  0  0  0  0
   18.8015   -9.2085   10.8419 N   0  0  0  0  0  0  0  0  0  0  0  0
   17.8258   -9.9716   11.4120 C   0  0  0  0  0  0  0  0  0  0  0  0
   16.6271  -10.2216   10.7240 C   0  0  0  0  0  0  0  0  0  0  0  0
   16.4625   -9.6840    9.4429 C   0  0  0  0  0  0  0  0  0  0  0  0
   15.4006   -9.8932    8.7984 O   0  0  0  0  0  0  0  0  0  0  0  0
   18.8073   -6.9570    6.1669 C   0  0  0  0  0  0  0  0  0  0  0  0
 20 21  1  0  0  0
 21 22  2  0  0  0
 22 23  1  0  0  0
 23 24  1  0  0  0
 24 25  2  0  0  0
 25 26  1  0  0  0
 26 19  1  0  0  0
 19 18  1  0  0  0
 18  1  1  0  0  0
  1  2  2  0  0  0
  2  3  1  0  0  0
  3  4  2  0  0  0
  4  5  1  0  0  0
  5  6  2  0  0  0
  5  7  1  0  0  0
  7  8  1  0  0  0
  8  9  2  0  0  0
  8 11  1  0  0  0
 11 12  2  0  0  0
 12 13  1  0  0  0
 13 14  2  0  0  0
 14 15  1  0  0  0
 15 16  1  0  0  0
 15 17  2  0  0  0
 26 27  2  0  0  0
 27 28  1  0  0  0
 28 29  2  0  0  0
 22 30  1  0  0  0
 24 20  1  0  0  0
  6  1  1  0  0  0
 17 11  1  0  0  0
 28 20  1  0  0  0
  7 10  1  0  0  0
M  END
>  <minimizedAffinity>
-7.39600

>  <minimizedRMSD>
0.94896

$$$$
ChemDiv-C679-4194 MCULE-4491851489 MolPort-007-655-805 PubChem-20874222 ZINC000013367991 ZINC13367991


 30 32  0  0  0  0  0  0  0  0999 V2000
   16.9015   -9.9725   16.6451 C   0  0  0  0  0  0  0  0  0  0  0  0
   17.0623   -9.5071   15.3305 C   0  0  0  0  0  0  0  0  0  0  0  0
   17.7730  -10.2586   14.3890 C   0  0  0  0  0  0  0  0  0  0  0  0
   18.3349  -11.4882   14.7699 C   0  0  0  0  0  0  0  0  0  0  0  0
   18.1846  -11.9533   16.0788 C   0  0  0  0  0  0  0  0  0  0  0  0
   17.4703  -11.1962   17.0124 C   0  0  0  0  0  0  0  0  0  0  0  0
   15.3529   -8.0729   17.3973 C   0  0  0  0  0  0  0  0  0  0  0  0
   15.1013   -7.6833   16.2273 O   0  0  0  0  0  0  0  0  0  0  0  0
   16.1847   -9.2187   17.6326 N   0  0  0  0  0  0  0  0  0  0  0  0
   16.2721   -9.5175   18.5666 H   0  0  0  0  0  0  0  0  0  0  0  0
   14.7639   -7.3275   18.5515 C   0  0  0  0  0  0  0  0  0  0  0  0
   14.5026   -7.6796   21.0073 C   0  0  0  0  0  0  0  0  0  0  0  0
   15.4657   -7.7362   19.8364 C   0  0  0  0  0  0  0  0  0  0  0  0
   13.2666   -7.5850   18.6577 C   0  0  0  0  0  0  0  0  0  0  0  0
   12.4846   -6.3420   18.2795 C   0  0  0  0  0  0  0  0  0  0  0  0
   17.9051   -9.7621   13.0905 O   0  0  0  0  0  0  0  0  0  0  0  0
   16.8146   -9.2146   12.3629 C   0  0  0  0  0  0  0  0  0  0  0  0
   17.1081   -9.2735   10.9070 C   0  0  0  0  0  0  0  0  0  0  0  0
   16.3977  -10.1660   10.0880 C   0  0  0  0  0  0  0  0  0  0  0  0
   16.6852  -10.1960    8.7191 C   0  0  0  0  0  0  0  0  0  0  0  0
   16.0719  -10.9910    7.9589 O   0  0  0  0  0  0  0  0  0  0  0  0
   17.6350   -9.3566    8.2295 N   0  0  0  0  0  0  0  0  0  0  0  0
   18.0057   -9.2888    6.9539 N   0  0  0  0  0  0  0  0  0  0  0  0
   18.9750   -8.3609    6.7518 C   0  0  0  0  0  0  0  0  0  0  0  0
   19.4200   -7.5847    8.1939 S   0  0  0  0  0  0  0  0  0  0  0  0
   18.2994   -8.5061    9.0392 C   0  0  0  0  0  0  0  0  0  0  0  0
   18.0531   -8.4506   10.3704 N   0  0  0  0  0  0  0  0  0  0  0  0
   19.6132   -8.0973    5.4287 C   0  0  0  0  0  0  0  0  0  0  0  0
   20.1727   -6.6880    5.3756 C   0  0  0  0  0  0  0  0  0  0  0  0
   18.6053   -8.2938    4.3133 C   0  0  0  0  0  0  0  0  0  0  0  0
 12 13  1  0  0  0
 13 11  1  0  0  0
 11 14  1  0  0  0
 11  7  1  0  0  0
 14 15  1  0  0  0
  7  8  2  0  0  0
  7  9  1  0  0  0
  9  1  1  0  0  0
  1  2  2  0  0  0
  2  3  1  0  0  0
  3 16  1  0  0  0
  3  4  2  0  0  0
 16 17  1  0  0  0
 17 18  1  0  0  0
 18 19  2  0  0  0
 19 20  1  0  0  0
 20 21  2  0  0  0
 20 22  1  0  0  0
 22 23  1  0  0  0
 23 24  2  0  0  0
 24 25  1  0  0  0
 24 28  1  0  0  0
 25 26  1  0  0  0
 26 27  2  0  0  0
 26 22  1  0  0  0
 27 18  1  0  0  0
 28 29  1  0  0  0
 28 30  1  0  0  0
  4  5  1  0  0  0
  5  6  2  0  0  0
  6  1  1  0  0  0
  9 10  1  0  0  0
M  END
>  <minimizedAffinity>
-7.38931

>  <minimizedRMSD>
1.27357

$$$$
ChemDiv-C679-4004 MCULE-4048788181 MolPort-007-655-736 PubChem-20874179 ZINC000013367816 ZINC13367816


 25 27  0  0  0  0  0  0  0  0999 V2000
   17.4055  -10.7228   12.8295 O   0  0  0  0  0  0  0  0  0  0  0  0
   17.0493  -10.3501   16.4937 C   0  0  0  0  0  0  0  0  0  0  0  0
   16.9217  -10.1321   15.1134 C   0  0  0  0  0  0  0  0  0  0  0  0
   17.5578  -10.9737   14.1954 C   0  0  0  0  0  0  0  0  0  0  0  0
   18.3314  -12.0464   14.6660 C   0  0  0  0  0  0  0  0  0  0  0  0
   18.4632  -12.2690   16.0387 C   0  0  0  0  0  0  0  0  0  0  0  0
   17.8238  -11.4226   16.9482 C   0  0  0  0  0  0  0  0  0  0  0  0
   15.7045   -8.2823   17.1945 C   0  0  0  0  0  0  0  0  0  0  0  0
   15.5686   -7.8475   16.0205 O   0  0  0  0  0  0  0  0  0  0  0  0
   16.4101   -9.5032   17.4583 N   0  0  0  0  0  0  0  0  0  0  0  0
   16.4608   -9.7891   18.3990 H   0  0  0  0  0  0  0  0  0  0  0  0
   13.6183   -7.3236   18.0921 C   0  0  0  0  0  0  0  0  0  0  0  0
   15.1036   -7.5214   18.3245 C   0  0  0  0  0  0  0  0  0  0  0  0
   16.8706   -9.5051   12.3276 C   0  0  0  0  0  0  0  0  0  0  0  0
   17.1870   -9.3809   10.8804 C   0  0  0  0  0  0  0  0  0  0  0  0
   16.4706  -10.1418    9.9417 C   0  0  0  0  0  0  0  0  0  0  0  0
   16.7681   -9.9876    8.5833 C   0  0  0  0  0  0  0  0  0  0  0  0
   16.1462  -10.6580    7.7169 O   0  0  0  0  0  0  0  0  0  0  0  0
   17.7346   -9.1035    8.2202 N   0  0  0  0  0  0  0  0  0  0  0  0
   18.1110   -8.8614    6.9668 N   0  0  0  0  0  0  0  0  0  0  0  0
   19.0924   -7.9298    6.9029 C   0  0  0  0  0  0  0  0  0  0  0  0
   19.6989   -7.4694    5.6270 C   0  0  0  0  0  0  0  0  0  0  0  0
   19.5363   -7.3604    8.4382 S   0  0  0  0  0  0  0  0  0  0  0  0
   18.4018   -8.3794    9.1433 C   0  0  0  0  0  0  0  0  0  0  0  0
   18.1422   -8.5001   10.4681 N   0  0  0  0  0  0  0  0  0  0  0  0
 12 13  1  0  0  0
 13  8  1  0  0  0
  8  9  2  0  0  0
  8 10  1  0  0  0
 10  2  1  0  0  0
  2  3  2  0  0  0
  3  4  1  0  0  0
  4  1  1  0  0  0
  4  5  2  0  0  0
  1 14  1  0  0  0
 14 15  1  0  0  0
 15 16  2  0  0  0
 16 17  1  0  0  0
 17 18  2  0  0  0
 17 19  1  0  0  0
 19 20  1  0  0  0
 20 21  2  0  0  0
 21 22  1  0  0  0
 21 23  1  0  0  0
 23 24  1  0  0  0
 24 25  2  0  0  0
 24 19  1  0  0  0
 25 15  1  0  0  0
  5  6  1  0  0  0
  6  7  2  0  0  0
  7  2  1  0  0  0
 10 11  1  0  0  0
M  END
>  <minimizedAffinity>
-7.38889

>  <minimizedRMSD>
1.04364

$$$$
ChemDiv-G756-0804 MCULE-6188942467 MolPort-007-879-411 PubChem-46356223 ZINC000033067917 ZINC33067917


 35 38  0  0  0  0  0  0  0  0999 V2000
   16.7669   -9.9669   16.8985 C   0  0  0  0  0  0  0  0  0  0  0  0
   17.3666  -11.1756   17.2531 C   0  0  0  0  0  0  0  0  0  0  0  0
   17.9813  -11.9685   16.2838 C   0  0  0  0  0  0  0  0  0  0  0  0
   18.0070  -11.5658   14.9448 C   0  0  0  0  0  0  0  0  0  0  0  0
   18.6941  -12.4710   13.9812 C   0  0  0  0  0  0  0  0  0  0  0  0
   17.4007  -10.3372   14.5697 C   0  0  0  0  0  0  0  0  0  0  0  0
   16.7908   -9.5580   15.5589 C   0  0  0  0  0  0  0  0  0  0  0  0
   15.2634   -8.0601   17.7300 C   0  0  0  0  0  0  0  0  0  0  0  0
   14.9787   -7.6587   16.5690 O   0  0  0  0  0  0  0  0  0  0  0  0
   16.1383   -9.1821   17.9209 N   0  0  0  0  0  0  0  0  0  0  0  0
   16.3267   -9.4400   18.8522 H   0  0  0  0  0  0  0  0  0  0  0  0
   13.6009   -6.0634   21.1435 C   0  0  0  0  0  0  0  0  0  0  0  0
   14.8135   -6.7609   21.2599 C   0  0  0  0  0  0  0  0  0  0  0  0
   15.3505   -7.4112   20.1362 C   0  0  0  0  0  0  0  0  0  0  0  0
   14.6911   -7.3728   18.9013 C   0  0  0  0  0  0  0  0  0  0  0  0
   13.4815   -6.6747   18.7945 C   0  0  0  0  0  0  0  0  0  0  0  0
   12.9401   -6.0254   19.9059 C   0  0  0  0  0  0  0  0  0  0  0  0
   13.0063   -4.0018   22.3815 C   0  0  0  0  0  0  0  0  0  0  0  0
   13.0732   -5.4170   22.2671 O   0  0  0  0  0  0  0  0  0  0  0  0
   15.4679   -6.7911   22.4953 O   0  0  0  0  0  0  0  0  0  0  0  0
   16.8335   -6.4258   22.6523 C   0  0  0  0  0  0  0  0  0  0  0  0
   17.3700   -9.8271   13.2620 O   0  0  0  0  0  0  0  0  0  0  0  0
   18.5051   -9.5932   12.4389 C   0  0  0  0  0  0  0  0  0  0  0  0
   18.0696   -9.4632   11.0235 C   0  0  0  0  0  0  0  0  0  0  0  0
   16.8254   -9.9439   10.6299 C   0  0  0  0  0  0  0  0  0  0  0  0
   16.4260   -9.7691    9.3060 C   0  0  0  0  0  0  0  0  0  0  0  0
   15.2996  -10.2104    8.9454 O   0  0  0  0  0  0  0  0  0  0  0  0
   17.2470   -9.1259    8.4178 N   0  0  0  0  0  0  0  0  0  0  0  0
   16.8450   -8.9495    7.1235 C   0  0  0  0  0  0  0  0  0  0  0  0
   17.6623   -8.2955    6.2013 C   0  0  0  0  0  0  0  0  0  0  0  0
   18.9046   -7.8179    6.6093 C   0  0  0  0  0  0  0  0  0  0  0  0
   19.3207   -7.9926    7.9281 C   0  0  0  0  0  0  0  0  0  0  0  0
   20.6552   -7.4710    8.3425 C   0  0  0  0  0  0  0  0  0  0  0  0
   18.4741   -8.6541    8.8348 C   0  0  0  0  0  0  0  0  0  0  0  0
   18.8640   -8.8269   10.1270 N   0  0  0  0  0  0  0  0  0  0  0  0
 18 19  1  0  0  0
 19 12  1  0  0  0
 12 13  2  0  0  0
 13 20  1  0  0  0
 13 14  1  0  0  0
 20 21  1  0  0  0
 14 15  2  0  0  0
 15 16  1  0  0  0
 15  8  1  0  0  0
 16 17  2  0  0  0
 17 12  1  0  0  0
  8  9  2  0  0  0
  8 10  1  0  0  0
 10  1  1  0  0  0
  1  2  2  0  0  0
  2  3  1  0  0  0
  3  4  2  0  0  0
  4  5  1  0  0  0
  4  6  1  0  0  0
  6 22  1  0  0  0
  6  7  2  0  0  0
 22 23  1  0  0  0
 23 24  1  0  0  0
 24 25  2  0  0  0
 25 26  1  0  0  0
 26 27  2  0  0  0
 26 28  1  0  0  0
 28 29  1  0  0  0
 29 30  2  0  0  0
 30 31  1  0  0  0
 31 32  2  0  0  0
 32 33  1  0  0  0
 32 34  1  0  0  0
 34 35  2  0  0  0
 34 28  1  0  0  0
 35 24  1  0  0  0
  7  1  1  0  0  0
 10 11  1  0  0  0
M  END
>  <minimizedAffinity>
-7.38849

>  <minimizedRMSD>
1.12387

$$$$
ChemDiv-C679-4381 MCULE-2038878145 MolPort-007-655-861 PubChem-20874255 ZINC000013368092


 33 36  0  0  0  0  0  0  0  0999 V2000
   16.8440   -9.5387   14.9738 C   0  0  0  0  0  0  0  0  0  0  0  0
   17.3834  -10.6422   15.6533 C   0  0  0  0  0  0  0  0  0  0  0  0
   17.2619  -10.7413   17.0416 C   0  0  0  0  0  0  0  0  0  0  0  0
   16.6019   -9.7395   17.7581 C   0  0  0  0  0  0  0  0  0  0  0  0
   16.0603   -8.6336   17.0942 C   0  0  0  0  0  0  0  0  0  0  0  0
   16.1853   -8.5412   15.6995 C   0  0  0  0  0  0  0  0  0  0  0  0
   15.3908   -7.6260   17.8643 N   0  0  0  0  0  0  0  0  0  0  0  0
   13.9872   -7.5532   18.1446 C   0  0  0  0  0  0  0  0  0  0  0  0
   13.1838   -8.4101   17.6911 O   0  0  0  0  0  0  0  0  0  0  0  0
   15.9535   -6.9104   18.2391 H   0  0  0  0  0  0  0  0  0  0  0  0
   13.4638   -6.4202   18.9512 C   0  0  0  0  0  0  0  0  0  0  0  0
   13.6980   -6.6717   20.3305 O   0  0  0  0  0  0  0  0  0  0  0  0
   13.2368   -5.8258   21.3446 C   0  0  0  0  0  0  0  0  0  0  0  0
   12.3636   -4.7612   21.0641 C   0  0  0  0  0  0  0  0  0  0  0  0
   11.9164   -3.9243   22.0895 C   0  0  0  0  0  0  0  0  0  0  0  0
   12.3356   -4.1452   23.4034 C   0  0  0  0  0  0  0  0  0  0  0  0
   13.2025   -5.2024   23.6916 C   0  0  0  0  0  0  0  0  0  0  0  0
   13.6539   -6.0415   22.6679 C   0  0  0  0  0  0  0  0  0  0  0  0
   14.7418   -7.3599   23.0640 Cl  0  0  0  0  0  0  0  0  0  0  0  0
   16.9479   -9.4085   13.5867 O   0  0  0  0  0  0  0  0  0  0  0  0
   17.9953  -10.0074   12.8353 C   0  0  0  0  0  0  0  0  0  0  0  0
   17.4110   -9.1408    8.7506 N   0  0  0  0  0  0  0  0  0  0  0  0
   17.3619   -8.7799    7.4705 N   0  0  0  0  0  0  0  0  0  0  0  0
   18.4699   -8.0977    7.0920 C   0  0  0  0  0  0  0  0  0  0  0  0
   19.5657   -7.8976    8.3728 S   0  0  0  0  0  0  0  0  0  0  0  0
   18.5330   -8.7474    9.3892 C   0  0  0  0  0  0  0  0  0  0  0  0
   18.7406   -9.0223   10.6999 N   0  0  0  0  0  0  0  0  0  0  0  0
   17.7964   -9.7228   11.3898 C   0  0  0  0  0  0  0  0  0  0  0  0
   16.6151  -10.1380   10.7533 C   0  0  0  0  0  0  0  0  0  0  0  0
   16.4377   -9.8325    9.3994 C   0  0  0  0  0  0  0  0  0  0  0  0
   15.3905  -10.1926    8.7992 O   0  0  0  0  0  0  0  0  0  0  0  0
   18.6579   -7.5372    5.7269 C   0  0  0  0  0  0  0  0  0  0  0  0
   20.1310   -7.2861    5.4720 C   0  0  0  0  0  0  0  0  0  0  0  0
 22 23  1  0  0  0
 23 24  2  0  0  0
 24 25  1  0  0  0
 25 26  1  0  0  0
 26 27  2  0  0  0
 27 28  1  0  0  0
 28 21  1  0  0  0
 21 20  1  0  0  0
 20  1  1  0  0  0
  1  2  2  0  0  0
  2  3  1  0  0  0
  3  4  2  0  0  0
  4  5  1  0  0  0
  5  6  2  0  0  0
  5  7  1  0  0  0
  7  8  1  0  0  0
  8 11  1  0  0  0
 11 12  1  0  0  0
 12 13  1  0  0  0
 13 14  2  0  0  0
 14 15  1  0  0  0
 15 16  2  0  0  0
 16 17  1  0  0  0
 17 18  2  0  0  0
 18 19  1  0  0  0
  8  9  2  0  0  0
 28 29  2  0  0  0
 29 30  1  0  0  0
 30 31  2  0  0  0
 24 32  1  0  0  0
 32 33  1  0  0  0
 26 22  1  0  0  0
  6  1  1  0  0  0
 18 13  1  0  0  0
 30 22  1  0  0  0
  7 10  1  0  0  0
M  END
>  <minimizedAffinity>
-7.38329

>  <minimizedRMSD>
2.01673

$$$$
ChemDiv-G756-0121 MCULE-2367502682 MolPort-010-686-752 PubChem-50802176 ZINC000033268504 ZINC33268504


 26 28  0  0  0  0  0  0  0  0999 V2000
   17.4300  -10.5366   16.1501 C   0  0  0  0  0  0  0  0  0  0  0  0
   17.6084   -9.9784   14.8751 C   0  0  0  0  0  0  0  0  0  0  0  0
   18.0990  -10.7524   13.8188 C   0  0  0  0  0  0  0  0  0  0  0  0
   18.4148  -12.1018   14.0426 C   0  0  0  0  0  0  0  0  0  0  0  0
   18.2401  -12.6638   15.3094 C   0  0  0  0  0  0  0  0  0  0  0  0
   17.7493  -11.8823   16.3586 C   0  0  0  0  0  0  0  0  0  0  0  0
   15.9784   -8.6978   17.1904 C   0  0  0  0  0  0  0  0  0  0  0  0
   15.4585   -8.3499   16.0963 O   0  0  0  0  0  0  0  0  0  0  0  0
   16.9306   -9.7672   17.2526 N   0  0  0  0  0  0  0  0  0  0  0  0
   17.2779   -9.9975   18.1446 H   0  0  0  0  0  0  0  0  0  0  0  0
   15.5842   -8.0058   18.4526 C   0  0  0  0  0  0  0  0  0  0  0  0
   13.1418   -7.6409   18.8230 C   0  0  0  0  0  0  0  0  0  0  0  0
   14.4112   -7.0652   18.2241 C   0  0  0  0  0  0  0  0  0  0  0  0
   18.2620  -10.1592   12.5644 O   0  0  0  0  0  0  0  0  0  0  0  0
   17.2850   -9.3031   11.9872 C   0  0  0  0  0  0  0  0  0  0  0  0
   17.4897   -9.2334   10.5162 C   0  0  0  0  0  0  0  0  0  0  0  0
   16.7079  -10.0108    9.6671 C   0  0  0  0  0  0  0  0  0  0  0  0
   16.9022   -9.9059    8.2907 C   0  0  0  0  0  0  0  0  0  0  0  0
   16.1975  -10.6131    7.5193 O   0  0  0  0  0  0  0  0  0  0  0  0
   17.8438   -9.0452    7.7932 N   0  0  0  0  0  0  0  0  0  0  0  0
   18.0335   -8.9429    6.4436 C   0  0  0  0  0  0  0  0  0  0  0  0
   18.9870   -8.0683    5.9195 C   0  0  0  0  0  0  0  0  0  0  0  0
   19.7519   -7.2920    6.7880 C   0  0  0  0  0  0  0  0  0  0  0  0
   19.5583   -7.3964    8.1642 C   0  0  0  0  0  0  0  0  0  0  0  0
   18.5969   -8.2814    8.6577 C   0  0  0  0  0  0  0  0  0  0  0  0
   18.4100   -8.3812    9.9992 N   0  0  0  0  0  0  0  0  0  0  0  0
 12 13  1  0  0  0
 13 11  1  0  0  0
 11  7  1  0  0  0
  7  8  2  0  0  0
  7  9  1  0  0  0
  9  1  1  0  0  0
  1  2  2  0  0  0
  2  3  1  0  0  0
  3 14  1  0  0  0
  3  4  2  0  0  0
 14 15  1  0  0  0
 15 16  1  0  0  0
 16 17  2  0  0  0
 17 18  1  0  0  0
 18 19  2  0  0  0
 18 20  1  0  0  0
 20 21  1  0  0  0
 21 22  2  0  0  0
 22 23  1  0  0  0
 23 24  2  0  0  0
 24 25  1  0  0  0
 25 26  2  0  0  0
 25 20  1  0  0  0
 26 16  1  0  0  0
  4  5  1  0  0  0
  5  6  2  0  0  0
  6  1  1  0  0  0
  9 10  1  0  0  0
M  END
>  <minimizedAffinity>
-7.38104

>  <minimizedRMSD>
1.46688

$$$$
ChemDiv-C679-4382 MCULE-8825565360 MolPort-007-655-862 PubChem-20874256 ZINC000013368094


 33 36  0  0  0  0  0  0  0  0999 V2000
   17.0228   -9.7664   15.0290 C   0  0  0  0  0  0  0  0  0  0  0  0
   17.5013  -10.9491   15.6143 C   0  0  0  0  0  0  0  0  0  0  0  0
   17.4093  -11.1369   16.9955 C   0  0  0  0  0  0  0  0  0  0  0  0
   16.8398  -10.1456   17.7988 C   0  0  0  0  0  0  0  0  0  0  0  0
   16.3593   -8.9619   17.2294 C   0  0  0  0  0  0  0  0  0  0  0  0
   16.4545   -8.7801   15.8412 C   0  0  0  0  0  0  0  0  0  0  0  0
   15.7812   -7.9687   18.0871 N   0  0  0  0  0  0  0  0  0  0  0  0
   14.3907   -7.6408   18.2029 C   0  0  0  0  0  0  0  0  0  0  0  0
   13.5203   -8.2209   17.5014 O   0  0  0  0  0  0  0  0  0  0  0  0
   16.4036   -7.4595   18.6550 H   0  0  0  0  0  0  0  0  0  0  0  0
   13.9728   -6.5667   19.1413 C   0  0  0  0  0  0  0  0  0  0  0  0
   14.4953   -6.8357   20.4357 O   0  0  0  0  0  0  0  0  0  0  0  0
   13.9311   -6.3106   21.6011 C   0  0  0  0  0  0  0  0  0  0  0  0
   12.5647   -5.9931   21.6804 C   0  0  0  0  0  0  0  0  0  0  0  0
   12.0309   -5.4683   22.8608 C   0  0  0  0  0  0  0  0  0  0  0  0
   12.8576   -5.2571   23.9675 C   0  0  0  0  0  0  0  0  0  0  0  0
   14.2175   -5.5715   23.8945 C   0  0  0  0  0  0  0  0  0  0  0  0
   14.7516   -6.0967   22.7140 C   0  0  0  0  0  0  0  0  0  0  0  0
   12.1895   -4.6002   25.4457 Cl  0  0  0  0  0  0  0  0  0  0  0  0
   17.0988   -9.5470   13.6513 O   0  0  0  0  0  0  0  0  0  0  0  0
   18.1005  -10.1380   12.8339 C   0  0  0  0  0  0  0  0  0  0  0  0
   17.3879   -9.0823    8.8143 N   0  0  0  0  0  0  0  0  0  0  0  0
   17.3034   -8.6700    7.5518 N   0  0  0  0  0  0  0  0  0  0  0  0
   18.4190   -8.0097    7.1570 C   0  0  0  0  0  0  0  0  0  0  0  0
   19.5689   -7.8974    8.4007 S   0  0  0  0  0  0  0  0  0  0  0  0
   18.5460   -8.7512    9.4235 C   0  0  0  0  0  0  0  0  0  0  0  0
   18.7947   -9.0874   10.7129 N   0  0  0  0  0  0  0  0  0  0  0  0
   17.8545   -9.7853   11.4108 C   0  0  0  0  0  0  0  0  0  0  0  0
   16.6365  -10.1362   10.8055 C   0  0  0  0  0  0  0  0  0  0  0  0
   16.4174   -9.7690    9.4731 C   0  0  0  0  0  0  0  0  0  0  0  0
   15.3367  -10.0710    8.9007 O   0  0  0  0  0  0  0  0  0  0  0  0
   18.5752   -7.4034    5.8075 C   0  0  0  0  0  0  0  0  0  0  0  0
   20.0465   -7.2740    5.4683 C   0  0  0  0  0  0  0  0  0  0  0  0
 22 23  1  0  0  0
 23 24  2  0  0  0
 24 25  1  0  0  0
 25 26  1  0  0  0
 26 27  2  0  0  0
 27 28  1  0  0  0
 28 21  1  0  0  0
 21 20  1  0  0  0
 20  1  1  0  0  0
  1  2  2  0  0  0
  2  3  1  0  0  0
  3  4  2  0  0  0
  4  5  1  0  0  0
  5  6  2  0  0  0
  5  7  1  0  0  0
  7  8  1  0  0  0
  8 11  1  0  0  0
 11 12  1  0  0  0
 12 13  1  0  0  0
 13 14  2  0  0  0
 14 15  1  0  0  0
 15 16  2  0  0  0
 16 17  1  0  0  0
 17 18  2  0  0  0
 16 19  1  0  0  0
  8  9  2  0  0  0
 28 29  2  0  0  0
 29 30  1  0  0  0
 30 31  2  0  0  0
 24 32  1  0  0  0
 32 33  1  0  0  0
 26 22  1  0  0  0
  6  1  1  0  0  0
 18 13  1  0  0  0
 30 22  1  0  0  0
  7 10  1  0  0  0
M  END
>  <minimizedAffinity>
-7.37217

>  <minimizedRMSD>
1.83386

$$$$
ChemDiv-C679-4373 MCULE-5243914071 MolPort-007-655-855 PubChem-20874249 ZINC000013368080


 32 35  0  0  0  0  0  0  0  0999 V2000
   18.0261  -10.6865   13.2390 C   0  0  0  0  0  0  0  0  0  0  0  0
   18.7217  -11.7831   13.7726 C   0  0  0  0  0  0  0  0  0  0  0  0
   18.5180  -12.1662   15.1004 C   0  0  0  0  0  0  0  0  0  0  0  0
   17.6196  -11.4566   15.9019 C   0  0  0  0  0  0  0  0  0  0  0  0
   16.9182  -10.3627   15.3827 C   0  0  0  0  0  0  0  0  0  0  0  0
   17.1302   -9.9823   14.0490 C   0  0  0  0  0  0  0  0  0  0  0  0
   16.0166   -9.6506   16.2407 N   0  0  0  0  0  0  0  0  0  0  0  0
   15.7560   -8.2407   16.2254 C   0  0  0  0  0  0  0  0  0  0  0  0
   16.2927   -7.4858   15.3724 O   0  0  0  0  0  0  0  0  0  0  0  0
   15.5269  -10.1838   16.9079 H   0  0  0  0  0  0  0  0  0  0  0  0
   14.8305   -7.6556   17.2366 C   0  0  0  0  0  0  0  0  0  0  0  0
   15.2729   -7.9674   18.5547 O   0  0  0  0  0  0  0  0  0  0  0  0
   14.7852   -7.3304   19.7012 C   0  0  0  0  0  0  0  0  0  0  0  0
   13.4628   -6.8729   19.7097 C   0  0  0  0  0  0  0  0  0  0  0  0
   12.9448   -6.2304   20.8384 C   0  0  0  0  0  0  0  0  0  0  0  0
   13.7488   -6.0406   21.9657 C   0  0  0  0  0  0  0  0  0  0  0  0
   15.0709   -6.4940   21.9656 C   0  0  0  0  0  0  0  0  0  0  0  0
   15.5890   -7.1368   20.8374 C   0  0  0  0  0  0  0  0  0  0  0  0
   18.2033  -10.2781   11.9145 O   0  0  0  0  0  0  0  0  0  0  0  0
   17.7003   -9.0454   11.4170 C   0  0  0  0  0  0  0  0  0  0  0  0
   18.1643   -8.8546    7.2311 N   0  0  0  0  0  0  0  0  0  0  0  0
   18.4216   -8.6809    5.9370 N   0  0  0  0  0  0  0  0  0  0  0  0
   19.4478   -7.8198    5.7346 C   0  0  0  0  0  0  0  0  0  0  0  0
   20.0736   -7.2165    7.1931 S   0  0  0  0  0  0  0  0  0  0  0  0
   18.9640   -8.1403    8.0508 C   0  0  0  0  0  0  0  0  0  0  0  0
   18.8337   -8.1941    9.3986 N   0  0  0  0  0  0  0  0  0  0  0  0
   17.8749   -8.9963    9.9417 C   0  0  0  0  0  0  0  0  0  0  0  0
   17.0224   -9.7449    9.1132 C   0  0  0  0  0  0  0  0  0  0  0  0
   17.1885   -9.6607    7.7264 C   0  0  0  0  0  0  0  0  0  0  0  0
   16.4430  -10.3221    6.9562 O   0  0  0  0  0  0  0  0  0  0  0  0
   19.9172   -7.4111    4.3836 C   0  0  0  0  0  0  0  0  0  0  0  0
   21.4052   -7.1215    4.4217 C   0  0  0  0  0  0  0  0  0  0  0  0
 21 22  1  0  0  0
 22 23  2  0  0  0
 23 24  1  0  0  0
 24 25  1  0  0  0
 25 26  2  0  0  0
 26 27  1  0  0  0
 27 20  1  0  0  0
 20 19  1  0  0  0
 19  1  1  0  0  0
  1  2  2  0  0  0
  2  3  1  0  0  0
  3  4  2  0  0  0
  4  5  1  0  0  0
  5  6  2  0  0  0
  5  7  1  0  0  0
  7  8  1  0  0  0
  8 11  1  0  0  0
 11 12  1  0  0  0
 12 13  1  0  0  0
 13 14  2  0  0  0
 14 15  1  0  0  0
 15 16  2  0  0  0
 16 17  1  0  0  0
 17 18  2  0  0  0
  8  9  2  0  0  0
 27 28  2  0  0  0
 28 29  1  0  0  0
 29 30  2  0  0  0
 23 31  1  0  0  0
 31 32  1  0  0  0
 25 21  1  0  0  0
  6  1  1  0  0  0
 18 13  1  0  0  0
 29 21  1  0  0  0
  7 10  1  0  0  0
M  END
>  <minimizedAffinity>
-7.36811

>  <minimizedRMSD>
2.86170

$$$$
ChemDiv-C679-4180 MCULE-9770266944 MolPort-007-655-792 PubChem-46258324 ZINC000013367964


 32 35  0  0  0  0  0  0  0  0999 V2000
   17.0469   -9.6538   15.0212 C   0  0  0  0  0  0  0  0  0  0  0  0
   17.6169  -10.7761   15.6424 C   0  0  0  0  0  0  0  0  0  0  0  0
   17.4883  -10.9571   17.0215 C   0  0  0  0  0  0  0  0  0  0  0  0
   16.7906  -10.0193   17.7870 C   0  0  0  0  0  0  0  0  0  0  0  0
   16.2174   -8.8963   17.1815 C   0  0  0  0  0  0  0  0  0  0  0  0
   16.3504   -8.7208   15.7957 C   0  0  0  0  0  0  0  0  0  0  0  0
   15.5093   -7.9569   18.0017 N   0  0  0  0  0  0  0  0  0  0  0  0
   14.0868   -7.7716   18.0685 C   0  0  0  0  0  0  0  0  0  0  0  0
   13.3141   -8.4728   17.3600 O   0  0  0  0  0  0  0  0  0  0  0  0
   16.0562   -7.3776   18.5801 H   0  0  0  0  0  0  0  0  0  0  0  0
   13.5250   -6.7532   18.9732 C   0  0  0  0  0  0  0  0  0  0  0  0
   12.5535   -5.8516   18.5126 C   0  0  0  0  0  0  0  0  0  0  0  0
   12.0211   -4.8860   19.3719 C   0  0  0  0  0  0  0  0  0  0  0  0
   12.4560   -4.8148   20.6979 C   0  0  0  0  0  0  0  0  0  0  0  0
   13.4230   -5.7087   21.1651 C   0  0  0  0  0  0  0  0  0  0  0  0
   13.9556   -6.6742   20.3059 C   0  0  0  0  0  0  0  0  0  0  0  0
   11.7890   -3.6064   21.7737 Cl  0  0  0  0  0  0  0  0  0  0  0  0
   17.1569   -9.4425   13.6445 O   0  0  0  0  0  0  0  0  0  0  0  0
   18.0911  -10.1420   12.8329 C   0  0  0  0  0  0  0  0  0  0  0  0
   17.4852   -9.0563    8.8036 N   0  0  0  0  0  0  0  0  0  0  0  0
   16.4895   -9.7306    9.4373 C   0  0  0  0  0  0  0  0  0  0  0  0
   15.4178  -10.0138    8.8392 O   0  0  0  0  0  0  0  0  0  0  0  0
   16.6726  -10.1068   10.7725 C   0  0  0  0  0  0  0  0  0  0  0  0
   17.8824   -9.7785   11.4065 C   0  0  0  0  0  0  0  0  0  0  0  0
   18.8493   -9.0934   10.7327 N   0  0  0  0  0  0  0  0  0  0  0  0
   18.6343   -8.7469    9.4402 C   0  0  0  0  0  0  0  0  0  0  0  0
   19.6952   -7.9110    8.4428 S   0  0  0  0  0  0  0  0  0  0  0  0
   18.5669   -7.9917    7.1706 C   0  0  0  0  0  0  0  0  0  0  0  0
   17.4363   -8.6411    7.5400 N   0  0  0  0  0  0  0  0  0  0  0  0
   18.7638   -7.4273    5.8025 C   0  0  0  0  0  0  0  0  0  0  0  0
   20.1893   -6.9422    5.6255 C   0  0  0  0  0  0  0  0  0  0  0  0
   18.4345   -8.4634    4.7456 C   0  0  0  0  0  0  0  0  0  0  0  0
 20 21  1  0  0  0
 21 22  2  0  0  0
 21 23  1  0  0  0
 23 24  2  0  0  0
 24 25  1  0  0  0
 25 26  2  0  0  0
 26 27  1  0  0  0
 27 28  1  0  0  0
 28 30  1  0  0  0
 30 31  1  0  0  0
 30 32  1  0  0  0
 28 29  2  0  0  0
 24 19  1  0  0  0
 19 18  1  0  0  0
 18  1  1  0  0  0
  1  2  2  0  0  0
  2  3  1  0  0  0
  3  4  2  0  0  0
  4  5  1  0  0  0
  5  6  2  0  0  0
  5  7  1  0  0  0
  7  8  1  0  0  0
  8  9  2  0  0  0
  8 11  1  0  0  0
 11 12  2  0  0  0
 12 13  1  0  0  0
 13 14  2  0  0  0
 14 15  1  0  0  0
 15 16  2  0  0  0
 14 17  1  0  0  0
 26 20  1  0  0  0
  6  1  1  0  0  0
 16 11  1  0  0  0
 29 20  1  0  0  0
  7 10  1  0  0  0
M  END
>  <minimizedAffinity>
-7.36792

>  <minimizedRMSD>
1.23088

$$$$
ChemDiv-D549-1941 MCULE-6680810296 MolPort-010-800-787 PubChem-53046720 ZINC000064794135 ZINC64794135


 32 35  0  0  0  0  0  0  0  0999 V2000
   17.5223  -10.1636   13.0042 N   0  0  0  0  0  0  0  0  0  0  0  0
   16.6654  -10.2784   14.0361 C   0  0  0  0  0  0  0  0  0  0  0  0
   15.4140   -9.9343   13.6804 N   0  0  0  0  0  0  0  0  0  0  0  0
   15.4598   -9.5890   12.4015 N   0  0  0  0  0  0  0  0  0  0  0  0
   16.7406   -9.7155   12.0003 C   0  0  0  0  0  0  0  0  0  0  0  0
   17.1748   -9.4559   10.6165 C   0  0  0  0  0  0  0  0  0  0  0  0
   18.2608   -8.6737   10.1986 C   0  0  0  0  0  0  0  0  0  0  0  0
   19.1020   -7.9396   11.0842 N   0  0  0  0  0  0  0  0  0  0  0  0
   18.3656   -8.5886    8.8072 C   0  0  0  0  0  0  0  0  0  0  0  0
   19.3176   -7.8820    8.0726 C   0  0  0  0  0  0  0  0  0  0  0  0
   19.2348   -7.9147    6.6718 C   0  0  0  0  0  0  0  0  0  0  0  0
   18.2043   -8.6444    6.0474 C   0  0  0  0  0  0  0  0  0  0  0  0
   17.2831   -9.3197    6.7942 N   0  0  0  0  0  0  0  0  0  0  0  0
   17.3725   -9.2870    8.1468 C   0  0  0  0  0  0  0  0  0  0  0  0
   16.3384  -10.0131    9.2496 S   0  0  0  0  0  0  0  0  0  0  0  0
   18.9910   -8.0319   12.0581 H   0  0  0  0  0  0  0  0  0  0  0  0
   19.7940   -7.3403   10.7222 H   0  0  0  0  0  0  0  0  0  0  0  0
   19.1109  -11.9804   13.3845 C   0  0  0  0  0  0  0  0  0  0  0  0
   18.9325  -10.5323   12.9675 C   0  0  0  0  0  0  0  0  0  0  0  0
   17.1103  -10.8318   15.6830 S   0  0  0  0  0  0  0  0  0  0  0  0
   17.6522   -9.1741   16.2049 C   0  0  0  0  0  0  0  0  0  0  0  0
   16.4906   -8.3602   16.6609 C   0  0  0  0  0  0  0  0  0  0  0  0
   15.8964   -7.6207   15.8329 O   0  0  0  0  0  0  0  0  0  0  0  0
   16.0776   -8.4228   18.0327 N   0  0  0  0  0  0  0  0  0  0  0  0
   16.6156   -8.9907   18.6304 H   0  0  0  0  0  0  0  0  0  0  0  0
   14.9615   -7.7435   18.6234 C   0  0  0  0  0  0  0  0  0  0  0  0
   13.8357   -7.3713   17.8724 C   0  0  0  0  0  0  0  0  0  0  0  0
   12.7639   -6.7144   18.4839 C   0  0  0  0  0  0  0  0  0  0  0  0
   12.8100   -6.4259   19.8504 C   0  0  0  0  0  0  0  0  0  0  0  0
   11.6712   -5.7277   20.5013 C   0  0  0  0  0  0  0  0  0  0  0  0
   13.9270   -6.7951   20.6045 C   0  0  0  0  0  0  0  0  0  0  0  0
   14.9983   -7.4521   19.9916 C   0  0  0  0  0  0  0  0  0  0  0  0
 18 19  1  0  0  0
 19  1  1  0  0  0
  1  2  1  0  0  0
  2 20  1  0  0  0
 20 21  1  0  0  0
 21 22  1  0  0  0
 22 23  2  0  0  0
 22 24  1  0  0  0
 24 26  1  0  0  0
 26 27  2  0  0  0
 27 28  1  0  0  0
 28 29  2  0  0  0
 29 30  1  0  0  0
 29 31  1  0  0  0
 31 32  2  0  0  0
  2  3  2  0  0  0
  3  4  1  0  0  0
  4  5  2  0  0  0
  5  6  1  0  0  0
  6  7  2  0  0  0
  7  8  1  0  0  0
  7  9  1  0  0  0
  9 10  2  0  0  0
 10 11  1  0  0  0
 11 12  2  0  0  0
 12 13  1  0  0  0
 13 14  2  0  0  0
 14 15  1  0  0  0
  5  1  1  0  0  0
 15  6  1  0  0  0
 32 26  1  0  0  0
 14  9  1  0  0  0
 24 25  1  0  0  0
  8 16  1  0  0  0
  8 17  1  0  0  0
M  END
>  <minimizedAffinity>
-7.36731

>  <minimizedRMSD>
0.93167

$$$$
ChemDiv-C679-5549 MCULE-6776618284 MolPort-010-797-243 PubChem-52096632 ZINC000041077401 ZINC41077401


 25 27  0  0  0  0  0  0  0  0999 V2000
   17.5442  -10.7024   12.8532 O   0  0  0  0  0  0  0  0  0  0  0  0
   17.0666  -10.3485   16.5055 C   0  0  0  0  0  0  0  0  0  0  0  0
   16.9947  -10.1163   15.1234 C   0  0  0  0  0  0  0  0  0  0  0  0
   17.6404  -10.9680   14.2215 C   0  0  0  0  0  0  0  0  0  0  0  0
   18.3672  -12.0651   14.7100 C   0  0  0  0  0  0  0  0  0  0  0  0
   18.4433  -12.3019   16.0846 C   0  0  0  0  0  0  0  0  0  0  0  0
   17.7947  -11.4453   16.9780 C   0  0  0  0  0  0  0  0  0  0  0  0
   15.7101   -8.2775   17.1695 C   0  0  0  0  0  0  0  0  0  0  0  0
   15.5845   -7.8558   15.9885 O   0  0  0  0  0  0  0  0  0  0  0  0
   16.4160   -9.4919   17.4540 N   0  0  0  0  0  0  0  0  0  0  0  0
   16.4588   -9.7665   18.3985 H   0  0  0  0  0  0  0  0  0  0  0  0
   13.6122   -7.3328   18.0589 C   0  0  0  0  0  0  0  0  0  0  0  0
   15.0996   -7.5146   18.2934 C   0  0  0  0  0  0  0  0  0  0  0  0
   16.8602   -9.5678   12.3377 C   0  0  0  0  0  0  0  0  0  0  0  0
   17.1803   -9.4060   10.8950 C   0  0  0  0  0  0  0  0  0  0  0  0
   16.4611  -10.1347    9.9349 C   0  0  0  0  0  0  0  0  0  0  0  0
   16.7621   -9.9455    8.5818 C   0  0  0  0  0  0  0  0  0  0  0  0
   16.1342  -10.5898    7.6993 O   0  0  0  0  0  0  0  0  0  0  0  0
   17.7363   -9.0580    8.2419 N   0  0  0  0  0  0  0  0  0  0  0  0
   18.1455   -8.7586    6.9800 C   0  0  0  0  0  0  0  0  0  0  0  0
   19.1615   -7.8058    6.9546 C   0  0  0  0  0  0  0  0  0  0  0  0
   19.8073   -7.2814    5.7234 C   0  0  0  0  0  0  0  0  0  0  0  0
   19.5531   -7.3305    8.5306 S   0  0  0  0  0  0  0  0  0  0  0  0
   18.4069   -8.3642    9.1887 C   0  0  0  0  0  0  0  0  0  0  0  0
   18.1420   -8.5215   10.5088 N   0  0  0  0  0  0  0  0  0  0  0  0
 12 13  1  0  0  0
 13  8  1  0  0  0
  8  9  2  0  0  0
  8 10  1  0  0  0
 10  2  1  0  0  0
  2  3  2  0  0  0
  3  4  1  0  0  0
  4  1  1  0  0  0
  4  5  2  0  0  0
  1 14  1  0  0  0
 14 15  1  0  0  0
 15 16  2  0  0  0
 16 17  1  0  0  0
 17 18  2  0  0  0
 17 19  1  0  0  0
 19 20  1  0  0  0
 20 21  2  0  0  0
 21 22  1  0  0  0
 21 23  1  0  0  0
 23 24  1  0  0  0
 24 25  2  0  0  0
 24 19  1  0  0  0
 25 15  1  0  0  0
  5  6  1  0  0  0
  6  7  2  0  0  0
  7  2  1  0  0  0
 10 11  1  0  0  0
M  END
>  <minimizedAffinity>
-7.36436

>  <minimizedRMSD>
1.03451

$$$$
ChemDiv-G756-2922 MCULE-6270773224 MolPort-007-880-116 PubChem-46356827 ZINC000033068344 ZINC33068344


 35 38  0  0  0  0  0  0  0  0999 V2000
   16.7808   -9.6651   17.0887 C   0  0  0  0  0  0  0  0  0  0  0  0
   17.2742  -10.8788   17.5683 C   0  0  0  0  0  0  0  0  0  0  0  0
   17.7856  -11.8296   16.6845 C   0  0  0  0  0  0  0  0  0  0  0  0
   17.8126  -11.5835   15.3081 C   0  0  0  0  0  0  0  0  0  0  0  0
   18.3913  -12.6482   14.4427 C   0  0  0  0  0  0  0  0  0  0  0  0
   17.3144  -10.3522   14.8062 C   0  0  0  0  0  0  0  0  0  0  0  0
   16.8074   -9.4121   15.7111 C   0  0  0  0  0  0  0  0  0  0  0  0
   15.0766   -7.9235   17.8846 C   0  0  0  0  0  0  0  0  0  0  0  0
   14.3425   -8.0239   16.8667 O   0  0  0  0  0  0  0  0  0  0  0  0
   16.2664   -8.7104   18.0264 N   0  0  0  0  0  0  0  0  0  0  0  0
   16.7841   -8.5819   18.8538 H   0  0  0  0  0  0  0  0  0  0  0  0
   14.7148   -6.9485   18.9526 C   0  0  0  0  0  0  0  0  0  0  0  0
   15.2525   -7.3650   20.2037 O   0  0  0  0  0  0  0  0  0  0  0  0
   13.9872   -5.8753   23.9267 C   0  0  0  0  0  0  0  0  0  0  0  0
   15.2346   -6.4930   23.7934 C   0  0  0  0  0  0  0  0  0  0  0  0
   15.6442   -6.9848   22.5502 C   0  0  0  0  0  0  0  0  0  0  0  0
   14.8101   -6.8674   21.4334 C   0  0  0  0  0  0  0  0  0  0  0  0
   13.5563   -6.2499   21.5717 C   0  0  0  0  0  0  0  0  0  0  0  0
   13.1458   -5.7592   22.8140 C   0  0  0  0  0  0  0  0  0  0  0  0
   14.1799   -4.0098   25.5418 C   0  0  0  0  0  0  0  0  0  0  0  0
   13.5554   -5.3650   25.2600 C   0  0  0  0  0  0  0  0  0  0  0  0
   17.3003   -9.9913   13.4499 O   0  0  0  0  0  0  0  0  0  0  0  0
   18.3747  -10.1684   12.5373 C   0  0  0  0  0  0  0  0  0  0  0  0
   17.9326   -9.7900   11.1694 C   0  0  0  0  0  0  0  0  0  0  0  0
   16.6577  -10.1308   10.7287 C   0  0  0  0  0  0  0  0  0  0  0  0
   16.2569   -9.7277    9.4565 C   0  0  0  0  0  0  0  0  0  0  0  0
   15.1032  -10.0419    9.0530 O   0  0  0  0  0  0  0  0  0  0  0  0
   17.1076   -9.0036    8.6639 N   0  0  0  0  0  0  0  0  0  0  0  0
   16.7093   -8.6174    7.4154 C   0  0  0  0  0  0  0  0  0  0  0  0
   17.5610   -7.8885    6.5851 C   0  0  0  0  0  0  0  0  0  0  0  0
   18.8333   -7.5506    7.0398 C   0  0  0  0  0  0  0  0  0  0  0  0
   19.2448   -7.9386    8.3135 C   0  0  0  0  0  0  0  0  0  0  0  0
   20.6125   -7.5662    8.7785 C   0  0  0  0  0  0  0  0  0  0  0  0
   18.3650   -8.6749    9.1261 C   0  0  0  0  0  0  0  0  0  0  0  0
   18.7547   -9.0666   10.3695 N   0  0  0  0  0  0  0  0  0  0  0  0
 20 21  1  0  0  0
 21 14  1  0  0  0
 14 15  2  0  0  0
 15 16  1  0  0  0
 16 17  2  0  0  0
 17 13  1  0  0  0
 17 18  1  0  0  0
 13 12  1  0  0  0
 12  8  1  0  0  0
  8  9  2  0  0  0
  8 10  1  0  0  0
 10  1  1  0  0  0
  1  2  2  0  0  0
  2  3  1  0  0  0
  3  4  2  0  0  0
  4  5  1  0  0  0
  4  6  1  0  0  0
  6 22  1  0  0  0
  6  7  2  0  0  0
 22 23  1  0  0  0
 23 24  1  0  0  0
 24 25  2  0  0  0
 25 26  1  0  0  0
 26 27  2  0  0  0
 26 28  1  0  0  0
 28 29  1  0  0  0
 29 30  2  0  0  0
 30 31  1  0  0  0
 31 32  2  0  0  0
 32 33  1  0  0  0
 32 34  1  0  0  0
 34 35  2  0  0  0
 34 28  1  0  0  0
 35 24  1  0  0  0
  7  1  1  0  0  0
 18 19  2  0  0  0
 19 14  1  0  0  0
 10 11  1  0  0  0
M  END
>  <minimizedAffinity>
-7.36387

>  <minimizedRMSD>
2.63133

$$$$
ChemDiv-C679-4374 MCULE-3124413562 MolPort-007-655-856 PubChem-20874250 ZINC000013368082


 33 36  0  0  0  0  0  0  0  0999 V2000
   16.9677   -9.7371   15.0240 C   0  0  0  0  0  0  0  0  0  0  0  0
   17.4509  -10.9048   15.6344 C   0  0  0  0  0  0  0  0  0  0  0  0
   17.3596  -11.0630   17.0190 C   0  0  0  0  0  0  0  0  0  0  0  0
   16.7863  -10.0570   17.8010 C   0  0  0  0  0  0  0  0  0  0  0  0
   16.3005   -8.8882   17.2061 C   0  0  0  0  0  0  0  0  0  0  0  0
   16.3944   -8.7359   15.8143 C   0  0  0  0  0  0  0  0  0  0  0  0
   15.7191   -7.8786   18.0424 N   0  0  0  0  0  0  0  0  0  0  0  0
   14.3224   -7.6008   18.2061 C   0  0  0  0  0  0  0  0  0  0  0  0
   13.4471   -8.2545   17.5800 O   0  0  0  0  0  0  0  0  0  0  0  0
   16.3438   -7.3183   18.5573 H   0  0  0  0  0  0  0  0  0  0  0  0
   13.9008   -6.4933   19.1034 C   0  0  0  0  0  0  0  0  0  0  0  0
   13.8586   -6.9579   20.4455 O   0  0  0  0  0  0  0  0  0  0  0  0
   13.4670   -6.1470   21.5173 C   0  0  0  0  0  0  0  0  0  0  0  0
   12.5148   -5.1274   21.3464 C   0  0  0  0  0  0  0  0  0  0  0  0
   12.1342   -4.3260   22.4254 C   0  0  0  0  0  0  0  0  0  0  0  0
   12.7013   -4.5355   23.6841 C   0  0  0  0  0  0  0  0  0  0  0  0
   13.6492   -5.5461   23.8637 C   0  0  0  0  0  0  0  0  0  0  0  0
   14.0343   -6.3508   22.7866 C   0  0  0  0  0  0  0  0  0  0  0  0
   15.0444   -7.4233   23.0093 C   0  0  0  0  0  0  0  0  0  0  0  0
   17.0398   -9.5489   13.6412 O   0  0  0  0  0  0  0  0  0  0  0  0
   18.0738  -10.1092   12.8426 C   0  0  0  0  0  0  0  0  0  0  0  0
   17.3923   -9.0996    8.8055 N   0  0  0  0  0  0  0  0  0  0  0  0
   17.3152   -8.6994    7.5384 N   0  0  0  0  0  0  0  0  0  0  0  0
   18.4304   -8.0358    7.1462 C   0  0  0  0  0  0  0  0  0  0  0  0
   19.5683   -7.9028    8.3988 S   0  0  0  0  0  0  0  0  0  0  0  0
   18.5430   -8.7552    9.4214 C   0  0  0  0  0  0  0  0  0  0  0  0
   18.7823   -9.0757   10.7165 N   0  0  0  0  0  0  0  0  0  0  0  0
   17.8393   -9.7711   11.4138 C   0  0  0  0  0  0  0  0  0  0  0  0
   16.6282  -10.1349   10.8017 C   0  0  0  0  0  0  0  0  0  0  0  0
   16.4189   -9.7838    9.4634 C   0  0  0  0  0  0  0  0  0  0  0  0
   15.3439  -10.0965    8.8855 O   0  0  0  0  0  0  0  0  0  0  0  0
   18.5930   -7.4382    5.7932 C   0  0  0  0  0  0  0  0  0  0  0  0
   20.0664   -7.2763    5.4755 C   0  0  0  0  0  0  0  0  0  0  0  0
 22 23  1  0  0  0
 23 24  2  0  0  0
 24 25  1  0  0  0
 25 26  1  0  0  0
 26 27  2  0  0  0
 27 28  1  0  0  0
 28 21  1  0  0  0
 21 20  1  0  0  0
 20  1  1  0  0  0
  1  2  2  0  0  0
  2  3  1  0  0  0
  3  4  2  0  0  0
  4  5  1  0  0  0
  5  6  2  0  0  0
  5  7  1  0  0  0
  7  8  1  0  0  0
  8 11  1  0  0  0
 11 12  1  0  0  0
 12 13  1  0  0  0
 13 14  2  0  0  0
 14 15  1  0  0  0
 15 16  2  0  0  0
 16 17  1  0  0  0
 17 18  2  0  0  0
 18 19  1  0  0  0
  8  9  2  0  0  0
 28 29  2  0  0  0
 29 30  1  0  0  0
 30 31  2  0  0  0
 24 32  1  0  0  0
 32 33  1  0  0  0
 26 22  1  0  0  0
  6  1  1  0  0  0
 18 13  1  0  0  0
 30 22  1  0  0  0
  7 10  1  0  0  0
M  END
>  <minimizedAffinity>
-7.35784

>  <minimizedRMSD>
1.98164

$$$$
ChemDiv-K405-3790 CHEMBL1457345 MCULE-6350384587 MolPort-003-084-151 PubChem-15954999 ZINC000008583079 ZINC08583079


 32 35  0  0  0  0  0  0  0  0999 V2000
   17.1473   -9.4465   11.9354 N   0  0  0  0  0  0  0  0  0  0  0  0
   16.3264   -9.1598   12.3970 H   0  0  0  0  0  0  0  0  0  0  0  0
   17.1284   -9.4908   10.5039 C   0  0  0  0  0  0  0  0  0  0  0  0
   18.0413   -8.8002    9.7028 C   0  0  0  0  0  0  0  0  0  0  0  0
   19.1121   -7.9651    9.9655 C   0  0  0  0  0  0  0  0  0  0  0  0
   19.6288   -7.5864    8.7670 N   0  0  0  0  0  0  0  0  0  0  0  0
   18.9278   -8.1473    7.7855 N   0  0  0  0  0  0  0  0  0  0  0  0
   17.9590   -8.8882    8.3504 C   0  0  0  0  0  0  0  0  0  0  0  0
   17.0113   -9.6305    7.7273 N   0  0  0  0  0  0  0  0  0  0  0  0
   16.1136  -10.3098    8.5008 C   0  0  0  0  0  0  0  0  0  0  0  0
   16.1767  -10.2364    9.8683 N   0  0  0  0  0  0  0  0  0  0  0  0
   19.2093   -7.9532    6.3876 C   0  0  0  0  0  0  0  0  0  0  0  0
   20.3227   -7.1933    5.9979 C   0  0  0  0  0  0  0  0  0  0  0  0
   20.6091   -6.9961    4.6441 C   0  0  0  0  0  0  0  0  0  0  0  0
   22.0014   -6.0455    4.1745 Cl  0  0  0  0  0  0  0  0  0  0  0  0
   19.7843   -7.5573    3.6662 C   0  0  0  0  0  0  0  0  0  0  0  0
   18.6732   -8.3158    4.0421 C   0  0  0  0  0  0  0  0  0  0  0  0
   18.3873   -8.5127    5.3960 C   0  0  0  0  0  0  0  0  0  0  0  0
   18.2993   -9.7970   12.7530 C   0  0  0  0  0  0  0  0  0  0  0  0
   17.8879  -10.7723   13.8444 C   0  0  0  0  0  0  0  0  0  0  0  0
   15.8537   -8.7207   17.0186 C   0  0  0  0  0  0  0  0  0  0  0  0
   15.7704   -8.2417   15.7063 C   0  0  0  0  0  0  0  0  0  0  0  0
   16.4280   -8.9134   14.6717 C   0  0  0  0  0  0  0  0  0  0  0  0
   17.1706  -10.0673   14.9460 C   0  0  0  0  0  0  0  0  0  0  0  0
   17.2610  -10.5421   16.2594 C   0  0  0  0  0  0  0  0  0  0  0  0
   16.6031   -9.8699   17.2936 C   0  0  0  0  0  0  0  0  0  0  0  0
   16.2049   -7.2681   19.4418 N   0  0  0  0  0  0  0  0  0  0  0  0
   15.0385   -7.8719   18.3190 S   0  0  0  0  0  0  0  0  0  0  0  0
   14.2463   -6.7271   17.7539 O   0  0  0  0  0  0  0  0  0  0  0  0
   14.1151   -8.8142   19.0389 O   0  0  0  0  0  0  0  0  0  0  0  0
   15.7272   -6.7753   20.1963 H   0  0  0  0  0  0  0  0  0  0  0  0
   16.8371   -6.6264   18.9633 H   0  0  0  0  0  0  0  0  0  0  0  0
 27 28  1  0  0  0
 28 29  2  0  0  0
 28 30  2  0  0  0
 28 21  1  0  0  0
 21 22  2  0  0  0
 22 23  1  0  0  0
 23 24  2  0  0  0
 24 20  1  0  0  0
 24 25  1  0  0  0
 20 19  1  0  0  0
 19  1  1  0  0  0
  1  3  1  0  0  0
  3  4  2  0  0  0
  4  5  1  0  0  0
  5  6  2  0  0  0
  6  7  1  0  0  0
  7  8  1  0  0  0
  7 12  1  0  0  0
  8  9  2  0  0  0
  8  4  1  0  0  0
  9 10  1  0  0  0
 10 11  2  0  0  0
 11  3  1  0  0  0
 12 13  2  0  0  0
 13 14  1  0  0  0
 14 15  1  0  0  0
 14 16  2  0  0  0
 16 17  1  0  0  0
 17 18  2  0  0  0
 18 12  1  0  0  0
 25 26  2  0  0  0
 26 21  1  0  0  0
 27 31  1  0  0  0
 27 32  1  0  0  0
  1  2  1  0  0  0
M  END
>  <minimizedAffinity>
-7.34356

>  <minimizedRMSD>
1.46358

$$$$
ChemDiv-G357-0522 MCULE-3050227498 MolPort-007-847-217 PubChem-20953003 ZINC000015771614


 31 33  0  0  0  0  0  0  0  0999 V2000
   18.1522  -10.7520   13.4626 C   0  0  0  0  0  0  0  0  0  0  0  0
   18.5779  -11.9403   13.4699 O   0  0  0  0  0  0  0  0  0  0  0  0
   17.5718  -10.1695   14.6831 C   0  0  0  0  0  0  0  0  0  0  0  0
   16.9154   -8.9333   14.6285 C   0  0  0  0  0  0  0  0  0  0  0  0
   16.3626   -8.3766   15.7849 C   0  0  0  0  0  0  0  0  0  0  0  0
   16.4591   -9.0490   17.0121 C   0  0  0  0  0  0  0  0  0  0  0  0
   17.1138  -10.2836   17.0653 C   0  0  0  0  0  0  0  0  0  0  0  0
   17.6676  -10.8416   15.9096 C   0  0  0  0  0  0  0  0  0  0  0  0
   15.9012   -8.5114   18.2189 N   0  0  0  0  0  0  0  0  0  0  0  0
   14.7118   -7.7205   18.3365 C   0  0  0  0  0  0  0  0  0  0  0  0
   14.0382   -7.4012   17.3188 O   0  0  0  0  0  0  0  0  0  0  0  0
   16.3858   -8.7058   19.0535 H   0  0  0  0  0  0  0  0  0  0  0  0
   14.2787   -7.2665   19.6945 C   0  0  0  0  0  0  0  0  0  0  0  0
   15.4961   -7.0176   20.5709 C   0  0  0  0  0  0  0  0  0  0  0  0
   15.1327   -7.1629   22.0365 C   0  0  0  0  0  0  0  0  0  0  0  0
   13.4205   -6.0100   19.6022 C   0  0  0  0  0  0  0  0  0  0  0  0
   12.0087   -6.2953   20.0790 C   0  0  0  0  0  0  0  0  0  0  0  0
   18.2282   -9.9842   12.2984 O   0  0  0  0  0  0  0  0  0  0  0  0
   17.0677   -9.5920   11.5802 C   0  0  0  0  0  0  0  0  0  0  0  0
   18.0396   -8.8585    7.5432 N   0  0  0  0  0  0  0  0  0  0  0  0
   18.4537   -8.5203    6.3245 N   0  0  0  0  0  0  0  0  0  0  0  0
   19.4877   -7.6453    6.3636 C   0  0  0  0  0  0  0  0  0  0  0  0
   19.9203   -7.2379    7.9537 S   0  0  0  0  0  0  0  0  0  0  0  0
   18.7225   -8.2588    8.5411 C   0  0  0  0  0  0  0  0  0  0  0  0
   18.4280   -8.4872    9.8442 N   0  0  0  0  0  0  0  0  0  0  0  0
   17.4215   -9.3517   10.1562 C   0  0  0  0  0  0  0  0  0  0  0  0
   16.6877   -9.9838    9.1387 C   0  0  0  0  0  0  0  0  0  0  0  0
   17.0216   -9.7198    7.8057 C   0  0  0  0  0  0  0  0  0  0  0  0
   16.3838  -10.2716    6.8700 O   0  0  0  0  0  0  0  0  0  0  0  0
   20.1183   -7.0700    5.1451 C   0  0  0  0  0  0  0  0  0  0  0  0
   19.8931   -7.9927    3.9642 C   0  0  0  0  0  0  0  0  0  0  0  0
 20 21  1  0  0  0
 21 22  2  0  0  0
 22 23  1  0  0  0
 23 24  1  0  0  0
 24 25  2  0  0  0
 25 26  1  0  0  0
 26 19  1  0  0  0
 19 18  1  0  0  0
 18  1  1  0  0  0
  1  2  2  0  0  0
  1  3  1  0  0  0
  3  4  2  0  0  0
  4  5  1  0  0  0
  5  6  2  0  0  0
  6  7  1  0  0  0
  7  8  2  0  0  0
  6  9  1  0  0  0
  9 10  1  0  0  0
 10 13  1  0  0  0
 13 14  1  0  0  0
 14 15  1  0  0  0
 13 16  1  0  0  0
 16 17  1  0  0  0
 10 11  2  0  0  0
 26 27  2  0  0  0
 27 28  1  0  0  0
 28 29  2  0  0  0
 22 30  1  0  0  0
 30 31  1  0  0  0
 24 20  1  0  0  0
  8  3  1  0  0  0
 28 20  1  0  0  0
  9 12  1  0  0  0
M  END
>  <minimizedAffinity>
-7.33836

>  <minimizedRMSD>
1.30564

$$$$
ChemDiv-G357-1526 CHEMBL1612891 MCULE-4088120443 MolPort-007-847-567 PubChem-16027632 ZINC000008607660 ZINC08607660


 34 37  0  0  0  0  0  0  0  0999 V2000
   16.4977   -9.2348   17.1668 C   0  0  0  0  0  0  0  0  0  0  0  0
   17.3417  -10.2981   17.5025 C   0  0  0  0  0  0  0  0  0  0  0  0
   17.8573  -11.1338   16.5077 C   0  0  0  0  0  0  0  0  0  0  0  0
   17.5333  -10.9151   15.1613 C   0  0  0  0  0  0  0  0  0  0  0  0
   16.6875   -9.8507   14.8241 C   0  0  0  0  0  0  0  0  0  0  0  0
   16.1728   -9.0162   15.8197 C   0  0  0  0  0  0  0  0  0  0  0  0
   14.8396   -7.5446   18.1484 C   0  0  0  0  0  0  0  0  0  0  0  0
   14.1654   -7.4361   17.0904 O   0  0  0  0  0  0  0  0  0  0  0  0
   15.9865   -8.4020   18.2162 N   0  0  0  0  0  0  0  0  0  0  0  0
   16.4735   -8.4209   19.0716 H   0  0  0  0  0  0  0  0  0  0  0  0
   14.4311   -6.7730   19.3561 C   0  0  0  0  0  0  0  0  0  0  0  0
   13.3777   -7.4446   20.0400 O   0  0  0  0  0  0  0  0  0  0  0  0
    8.6057   -9.2553   17.5037 C   0  0  0  0  0  0  0  0  0  0  0  0
    9.8578   -8.7990   18.1732 C   0  0  0  0  0  0  0  0  0  0  0  0
   10.2048   -7.4468   18.1008 C   0  0  0  0  0  0  0  0  0  0  0  0
   11.3706   -6.9850   18.7162 C   0  0  0  0  0  0  0  0  0  0  0  0
   12.2038   -7.8748   19.4115 C   0  0  0  0  0  0  0  0  0  0  0  0
   11.8540   -9.2264   19.4849 C   0  0  0  0  0  0  0  0  0  0  0  0
   10.6882   -9.6955   18.8710 C   0  0  0  0  0  0  0  0  0  0  0  0
   10.3570  -11.1458   18.9753 C   0  0  0  0  0  0  0  0  0  0  0  0
   18.0723  -11.7918   14.1093 C   0  0  0  0  0  0  0  0  0  0  0  0
   18.4543  -12.9606   14.3944 O   0  0  0  0  0  0  0  0  0  0  0  0
   18.1578  -11.3243   12.7961 O   0  0  0  0  0  0  0  0  0  0  0  0
   18.5380   -9.9890   12.4972 C   0  0  0  0  0  0  0  0  0  0  0  0
   18.0856   -9.6383   11.1252 C   0  0  0  0  0  0  0  0  0  0  0  0
   16.8322  -10.0774   10.6699 C   0  0  0  0  0  0  0  0  0  0  0  0
   16.4167   -9.7099    9.3853 C   0  0  0  0  0  0  0  0  0  0  0  0
   15.2980  -10.0932    8.9495 O   0  0  0  0  0  0  0  0  0  0  0  0
   17.2376   -8.9353    8.6246 N   0  0  0  0  0  0  0  0  0  0  0  0
   16.9854   -8.4896    7.3640 C   0  0  0  0  0  0  0  0  0  0  0  0
   18.0070   -7.7032    6.8187 C   0  0  0  0  0  0  0  0  0  0  0  0
   19.2431   -7.5830    7.9742 S   0  0  0  0  0  0  0  0  0  0  0  0
   18.4322   -8.5226    9.0927 C   0  0  0  0  0  0  0  0  0  0  0  0
   18.8703   -8.8568   10.3311 N   0  0  0  0  0  0  0  0  0  0  0  0
 13 14  1  0  0  0
 14 15  2  0  0  0
 15 16  1  0  0  0
 16 17  2  0  0  0
 17 12  1  0  0  0
 17 18  1  0  0  0
 12 11  1  0  0  0
 11  7  1  0  0  0
  7  8  2  0  0  0
  7  9  1  0  0  0
  9  1  1  0  0  0
  1  2  2  0  0  0
  2  3  1  0  0  0
  3  4  2  0  0  0
  4  5  1  0  0  0
  4 21  1  0  0  0
  5  6  2  0  0  0
  6  1  1  0  0  0
 21 22  2  0  0  0
 21 23  1  0  0  0
 23 24  1  0  0  0
 24 25  1  0  0  0
 25 26  2  0  0  0
 26 27  1  0  0  0
 27 28  2  0  0  0
 27 29  1  0  0  0
 29 30  1  0  0  0
 30 31  2  0  0  0
 31 32  1  0  0  0
 32 33  1  0  0  0
 33 34  2  0  0  0
 33 29  1  0  0  0
 34 25  1  0  0  0
 18 19  2  0  0  0
 19 20  1  0  0  0
 19 14  1  0  0  0
  9 10  1  0  0  0
M  END
>  <minimizedAffinity>
-7.33569

>  <minimizedRMSD>
1.11052

$$$$
ChemDiv-C679-5932 MCULE-4576532537 MolPort-007-656-179 PubChem-20874360 ZINC000013368412


 27 30  0  0  0  0  0  0  0  0999 V2000
   17.8147   -9.0550    8.1930 N   0  0  0  0  0  0  0  0  0  0  0  0
   18.5082   -8.6228    7.0974 C   0  0  0  0  0  0  0  0  0  0  0  0
   18.2392   -9.0582    5.6830 C   0  0  0  0  0  0  0  0  0  0  0  0
   18.8104   -8.0475    4.6849 C   0  0  0  0  0  0  0  0  0  0  0  0
   20.2798   -7.7607    5.0019 C   0  0  0  0  0  0  0  0  0  0  0  0
   20.4393   -7.1027    6.3782 C   0  0  0  0  0  0  0  0  0  0  0  0
   19.5584   -7.7554    7.3998 C   0  0  0  0  0  0  0  0  0  0  0  0
   19.6037   -7.4813    9.0644 S   0  0  0  0  0  0  0  0  0  0  0  0
   18.3011   -8.5105    9.3358 C   0  0  0  0  0  0  0  0  0  0  0  0
   17.7618   -8.7906   10.5473 N   0  0  0  0  0  0  0  0  0  0  0  0
   16.7075   -9.6474   10.6292 C   0  0  0  0  0  0  0  0  0  0  0  0
   16.1733  -10.2225    9.4683 C   0  0  0  0  0  0  0  0  0  0  0  0
   16.7506   -9.9126    8.2327 C   0  0  0  0  0  0  0  0  0  0  0  0
   16.2804  -10.4250    7.1823 O   0  0  0  0  0  0  0  0  0  0  0  0
   16.0915   -9.9394   11.9502 C   0  0  0  0  0  0  0  0  0  0  0  0
   16.7748   -9.2157   12.9651 O   0  0  0  0  0  0  0  0  0  0  0  0
   17.0344   -9.7512   14.2291 C   0  0  0  0  0  0  0  0  0  0  0  0
   17.7351  -10.9570   14.3889 C   0  0  0  0  0  0  0  0  0  0  0  0
   17.9777  -11.4648   15.6674 C   0  0  0  0  0  0  0  0  0  0  0  0
   17.5224  -10.7720   16.7922 C   0  0  0  0  0  0  0  0  0  0  0  0
   16.8228   -9.5694   16.6481 C   0  0  0  0  0  0  0  0  0  0  0  0
   16.5826   -9.0650   15.3608 C   0  0  0  0  0  0  0  0  0  0  0  0
   16.3719   -8.8879   17.8268 N   0  0  0  0  0  0  0  0  0  0  0  0
   15.3035   -7.9364   17.9107 C   0  0  0  0  0  0  0  0  0  0  0  0
   14.9740   -7.3276   19.2253 C   0  0  0  0  0  0  0  0  0  0  0  0
   14.6389   -7.6058   16.8935 O   0  0  0  0  0  0  0  0  0  0  0  0
   16.8451   -9.0952   18.6648 H   0  0  0  0  0  0  0  0  0  0  0  0
  1  2  1  0  0  0
  2  3  1  0  0  0
  3  4  1  0  0  0
  4  5  1  0  0  0
  5  6  1  0  0  0
  6  7  1  0  0  0
  7  8  1  0  0  0
  8  9  1  0  0  0
  9 10  2  0  0  0
 10 11  1  0  0  0
 11 15  1  0  0  0
 15 16  1  0  0  0
 16 17  1  0  0  0
 17 18  2  0  0  0
 18 19  1  0  0  0
 19 20  2  0  0  0
 20 21  1  0  0  0
 21 22  2  0  0  0
 21 23  1  0  0  0
 23 24  1  0  0  0
 24 25  1  0  0  0
 24 26  2  0  0  0
 11 12  2  0  0  0
 12 13  1  0  0  0
 13 14  2  0  0  0
  9  1  1  0  0  0
 22 17  1  0  0  0
 13  1  1  0  0  0
  7  2  2  0  0  0
 23 27  1  0  0  0
M  END
>  <minimizedAffinity>
-7.32753

>  <minimizedRMSD>
1.14122

$$$$
ChemDiv-G355-3311 MCULE-5418180234 MolPort-010-743-047 PubChem-50794004 ZINC000035428457 ZINC35428457


 36 40  0  0  0  0  0  0  0  0999 V2000
   17.2603  -10.3543   13.8969 C   0  0  0  0  0  0  0  0  0  0  0  0
   16.1842   -9.7875   14.5888 C   0  0  0  0  0  0  0  0  0  0  0  0
   16.0747   -9.8907   15.9814 C   0  0  0  0  0  0  0  0  0  0  0  0
   17.0608  -10.5736   16.6936 C   0  0  0  0  0  0  0  0  0  0  0  0
   18.1423  -11.1476   16.0246 C   0  0  0  0  0  0  0  0  0  0  0  0
   18.2562  -11.0481   14.6343 C   0  0  0  0  0  0  0  0  0  0  0  0
   19.4371  -11.7030   14.0047 C   0  0  0  0  0  0  0  0  0  0  0  0
   14.9771   -9.3133   16.7007 N   0  0  0  0  0  0  0  0  0  0  0  0
   14.8120   -7.9321   17.0467 C   0  0  0  0  0  0  0  0  0  0  0  0
   15.6713   -7.0701   16.7244 O   0  0  0  0  0  0  0  0  0  0  0  0
   14.2636   -9.9286   16.9862 H   0  0  0  0  0  0  0  0  0  0  0  0
   13.6113   -7.5093   17.8214 C   0  0  0  0  0  0  0  0  0  0  0  0
   14.0113   -6.9243   19.0941 N   0  0  0  0  0  0  0  0  0  0  0  0
   14.7486   -7.5741   20.1318 C   0  0  0  0  0  0  0  0  0  0  0  0
   15.3740   -8.6578   19.9862 O   0  0  0  0  0  0  0  0  0  0  0  0
   14.6366   -6.8150   21.3721 C   0  0  0  0  0  0  0  0  0  0  0  0
   15.1824   -7.0500   22.6326 C   0  0  0  0  0  0  0  0  0  0  0  0
   14.8817   -6.1335   23.6561 C   0  0  0  0  0  0  0  0  0  0  0  0
   14.0514   -5.0205   23.4036 C   0  0  0  0  0  0  0  0  0  0  0  0
   13.5086   -4.8077   22.1235 C   0  0  0  0  0  0  0  0  0  0  0  0
   13.8241   -5.7272   21.1250 C   0  0  0  0  0  0  0  0  0  0  0  0
   13.4159   -5.7891   19.7261 C   0  0  0  0  0  0  0  0  0  0  0  0
   12.6370   -4.9836   19.1511 O   0  0  0  0  0  0  0  0  0  0  0  0
   17.2674  -10.1896   12.5023 O   0  0  0  0  0  0  0  0  0  0  0  0
   16.5389   -9.2043   11.7840 C   0  0  0  0  0  0  0  0  0  0  0  0
   20.2984   -7.2149    5.8472 C   0  0  0  0  0  0  0  0  0  0  0  0
   19.4239   -7.7692    6.9138 C   0  0  0  0  0  0  0  0  0  0  0  0
   19.4504   -7.3797    8.2575 C   0  0  0  0  0  0  0  0  0  0  0  0
   18.4634   -8.1918    8.7820 C   0  0  0  0  0  0  0  0  0  0  0  0
   18.0355   -8.2536   10.0671 N   0  0  0  0  0  0  0  0  0  0  0  0
   17.0412   -9.1347   10.3873 C   0  0  0  0  0  0  0  0  0  0  0  0
   16.4583   -9.9494    9.3949 C   0  0  0  0  0  0  0  0  0  0  0  0
   16.9318   -9.8468    8.0812 C   0  0  0  0  0  0  0  0  0  0  0  0
   16.4434  -10.5527    7.1602 O   0  0  0  0  0  0  0  0  0  0  0  0
   17.9293   -8.9644    7.8318 N   0  0  0  0  0  0  0  0  0  0  0  0
   18.5153   -8.7025    6.7084 O   0  0  0  0  0  0  0  0  0  0  0  0
 26 27  1  0  0  0
 27 28  2  0  0  0
 28 29  1  0  0  0
 29 30  2  0  0  0
 30 31  1  0  0  0
 31 25  1  0  0  0
 31 32  2  0  0  0
 25 24  1  0  0  0
 24  1  1  0  0  0
  1  2  2  0  0  0
  2  3  1  0  0  0
  3  8  1  0  0  0
  3  4  2  0  0  0
  8  9  1  0  0  0
  9 10  2  0  0  0
  9 12  1  0  0  0
 12 13  1  0  0  0
 13 14  1  0  0  0
 14 15  2  0  0  0
 14 16  1  0  0  0
 16 17  2  0  0  0
 17 18  1  0  0  0
 18 19  2  0  0  0
 19 20  1  0  0  0
 20 21  2  0  0  0
 21 22  1  0  0  0
 21 16  1  0  0  0
 22 23  2  0  0  0
 22 13  1  0  0  0
  4  5  1  0  0  0
  5  6  2  0  0  0
  6  7  1  0  0  0
  6  1  1  0  0  0
 32 33  1  0  0  0
 33 34  2  0  0  0
 33 35  1  0  0  0
 35 36  1  0  0  0
 35 29  1  0  0  0
 36 27  1  0  0  0
  8 11  1  0  0  0
M  END
>  <minimizedAffinity>
-7.32562

>  <minimizedRMSD>
2.73139

$$$$
ChemDiv-C679-4861 MCULE-3617797114 MolPort-007-655-994 PubChem-20874316 ZINC000009858764 ZINC09858764


 30 34  0  0  0  0  0  0  0  0999 V2000
   16.5438   -9.2928   17.3421 C   0  0  0  0  0  0  0  0  0  0  0  0
   16.6105   -9.0616   15.9596 C   0  0  0  0  0  0  0  0  0  0  0  0
   17.3456   -9.9121   15.1278 C   0  0  0  0  0  0  0  0  0  0  0  0
   18.0222  -11.0073   15.6876 C   0  0  0  0  0  0  0  0  0  0  0  0
   17.9602  -11.2434   17.0631 C   0  0  0  0  0  0  0  0  0  0  0  0
   17.2229  -10.3879   17.8862 C   0  0  0  0  0  0  0  0  0  0  0  0
   14.1549   -7.6899   16.7211 O   0  0  0  0  0  0  0  0  0  0  0  0
   14.6356   -7.6668   17.8856 C   0  0  0  0  0  0  0  0  0  0  0  0
   15.7986   -8.4380   18.2198 N   0  0  0  0  0  0  0  0  0  0  0  0
   16.1183   -8.3735   19.1487 H   0  0  0  0  0  0  0  0  0  0  0  0
   13.9947   -6.8373   18.9113 C   0  0  0  0  0  0  0  0  0  0  0  0
   14.1736   -6.9659   20.2724 C   0  0  0  0  0  0  0  0  0  0  0  0
   13.3769   -5.9801   20.8284 C   0  0  0  0  0  0  0  0  0  0  0  0
   12.7695   -5.3205   19.7735 C   0  0  0  0  0  0  0  0  0  0  0  0
   13.1640   -5.8615   18.6461 O   0  0  0  0  0  0  0  0  0  0  0  0
   17.3868   -9.6473   13.7567 O   0  0  0  0  0  0  0  0  0  0  0  0
   17.9974  -10.5279   12.8227 C   0  0  0  0  0  0  0  0  0  0  0  0
   17.8192   -9.9956   11.4460 C   0  0  0  0  0  0  0  0  0  0  0  0
   16.6242  -10.2445   10.7509 C   0  0  0  0  0  0  0  0  0  0  0  0
   16.4694   -9.7104    9.4668 C   0  0  0  0  0  0  0  0  0  0  0  0
   15.4120   -9.9201    8.8150 O   0  0  0  0  0  0  0  0  0  0  0  0
   17.4769   -8.9641    8.9413 N   0  0  0  0  0  0  0  0  0  0  0  0
   17.4571   -8.4035    7.7345 N   0  0  0  0  0  0  0  0  0  0  0  0
   18.5922   -7.7077    7.4749 C   0  0  0  0  0  0  0  0  0  0  0  0
   19.6955   -7.7930    8.7650 S   0  0  0  0  0  0  0  0  0  0  0  0
   18.6114   -8.7349    9.6351 C   0  0  0  0  0  0  0  0  0  0  0  0
   18.7996   -9.2358   10.8804 N   0  0  0  0  0  0  0  0  0  0  0  0
   18.8603   -7.0251    6.1737 C   0  0  0  0  0  0  0  0  0  0  0  0
   20.2230   -7.4347    5.6459 C   0  0  0  0  0  0  0  0  0  0  0  0
   18.9727   -8.0562    5.0660 C   0  0  0  0  0  0  0  0  0  0  0  0
  7  8  2  0  0  0
  8  9  1  0  0  0
  8 11  1  0  0  0
  9  1  1  0  0  0
  1  2  2  0  0  0
  2  3  1  0  0  0
  3 16  1  0  0  0
  3  4  2  0  0  0
 16 17  1  0  0  0
 17 18  1  0  0  0
 18 19  2  0  0  0
 19 20  1  0  0  0
 20 21  2  0  0  0
 20 22  1  0  0  0
 22 23  1  0  0  0
 23 24  2  0  0  0
 24 25  1  0  0  0
 24 28  1  0  0  0
 25 26  1  0  0  0
 26 27  2  0  0  0
 26 22  1  0  0  0
 27 18  1  0  0  0
 28 29  1  0  0  0
 29 30  1  0  0  0
 30 28  1  0  0  0
  4  5  1  0  0  0
  5  6  2  0  0  0
  6  1  1  0  0  0
 11 12  2  0  0  0
 12 13  1  0  0  0
 13 14  2  0  0  0
 14 15  1  0  0  0
 15 11  1  0  0  0
  9 10  1  0  0  0
M  END
>  <minimizedAffinity>
-7.32108

>  <minimizedRMSD>
1.14686

$$$$
ChemDiv-G756-0763 MCULE-9501663900 MolPort-010-744-656 PubChem-50802640 ZINC000033268574 ZINC33268574


 32 35  0  0  0  0  0  0  0  0999 V2000
   18.7840  -12.3679   13.8685 C   0  0  0  0  0  0  0  0  0  0  0  0
   18.0549  -11.5023   14.8371 C   0  0  0  0  0  0  0  0  0  0  0  0
   18.0372  -11.9200   16.1715 C   0  0  0  0  0  0  0  0  0  0  0  0
   17.3880  -11.1620   17.1460 C   0  0  0  0  0  0  0  0  0  0  0  0
   16.7477   -9.9716   16.8018 C   0  0  0  0  0  0  0  0  0  0  0  0
   16.7615   -9.5488   15.4661 C   0  0  0  0  0  0  0  0  0  0  0  0
   17.4028  -10.2953   14.4711 C   0  0  0  0  0  0  0  0  0  0  0  0
   16.0916   -9.2182   17.8306 N   0  0  0  0  0  0  0  0  0  0  0  0
   15.2558   -8.0643   17.6533 C   0  0  0  0  0  0  0  0  0  0  0  0
   15.0394   -7.5994   16.5013 O   0  0  0  0  0  0  0  0  0  0  0  0
   16.2288   -9.5245   18.7561 H   0  0  0  0  0  0  0  0  0  0  0  0
   14.6474   -7.4153   18.8279 C   0  0  0  0  0  0  0  0  0  0  0  0
   13.4425   -6.7074   18.7042 C   0  0  0  0  0  0  0  0  0  0  0  0
   12.8665   -6.0911   19.8183 C   0  0  0  0  0  0  0  0  0  0  0  0
   13.4911   -6.1772   21.0645 C   0  0  0  0  0  0  0  0  0  0  0  0
   12.7688   -5.4068   22.4594 Cl  0  0  0  0  0  0  0  0  0  0  0  0
   14.6908   -6.8810   21.1973 C   0  0  0  0  0  0  0  0  0  0  0  0
   15.2668   -7.4977   20.0829 C   0  0  0  0  0  0  0  0  0  0  0  0
   17.3505   -9.7798   13.1663 O   0  0  0  0  0  0  0  0  0  0  0  0
   18.4746   -9.4380   12.3687 C   0  0  0  0  0  0  0  0  0  0  0  0
   18.0707   -9.3754   10.9395 C   0  0  0  0  0  0  0  0  0  0  0  0
   16.8580   -9.9216   10.5345 C   0  0  0  0  0  0  0  0  0  0  0  0
   16.4939   -9.8280    9.1928 C   0  0  0  0  0  0  0  0  0  0  0  0
   15.3965  -10.3289    8.8228 O   0  0  0  0  0  0  0  0  0  0  0  0
   17.3189   -9.2005    8.2974 N   0  0  0  0  0  0  0  0  0  0  0  0
   16.9539   -9.1109    6.9841 C   0  0  0  0  0  0  0  0  0  0  0  0
   17.7756   -8.4748    6.0537 C   0  0  0  0  0  0  0  0  0  0  0  0
   18.9829   -7.9236    6.4742 C   0  0  0  0  0  0  0  0  0  0  0  0
   19.3607   -8.0109    7.8128 C   0  0  0  0  0  0  0  0  0  0  0  0
   20.6578   -7.4127    8.2404 C   0  0  0  0  0  0  0  0  0  0  0  0
   18.5125   -8.6597    8.7262 C   0  0  0  0  0  0  0  0  0  0  0  0
   18.8681   -8.7532   10.0363 N   0  0  0  0  0  0  0  0  0  0  0  0
  1  2  1  0  0  0
  2  3  2  0  0  0
  3  4  1  0  0  0
  4  5  2  0  0  0
  5  8  1  0  0  0
  5  6  1  0  0  0
  8  9  1  0  0  0
  9 10  2  0  0  0
  9 12  1  0  0  0
 12 13  2  0  0  0
 13 14  1  0  0  0
 14 15  2  0  0  0
 15 16  1  0  0  0
 15 17  1  0  0  0
 17 18  2  0  0  0
 18 12  1  0  0  0
  6  7  2  0  0  0
  7 19  1  0  0  0
  7  2  1  0  0  0
 19 20  1  0  0  0
 20 21  1  0  0  0
 21 22  2  0  0  0
 22 23  1  0  0  0
 23 24  2  0  0  0
 23 25  1  0  0  0
 25 26  1  0  0  0
 26 27  2  0  0  0
 27 28  1  0  0  0
 28 29  2  0  0  0
 29 30  1  0  0  0
 29 31  1  0  0  0
 31 32  2  0  0  0
 31 25  1  0  0  0
 32 21  1  0  0  0
  8 11  1  0  0  0
M  END
>  <minimizedAffinity>
-7.31909

>  <minimizedRMSD>
1.08885

$$$$
ChemDiv-C679-4372 MCULE-8660042236 MolPort-007-655-854 PubChem-46258349 ZINC000013368078


 31 34  0  0  0  0  0  0  0  0999 V2000
   17.0237   -9.6790   15.0688 C   0  0  0  0  0  0  0  0  0  0  0  0
   17.5604  -10.8325   15.6620 C   0  0  0  0  0  0  0  0  0  0  0  0
   17.4516  -11.0295   17.0406 C   0  0  0  0  0  0  0  0  0  0  0  0
   16.8069  -10.0765   17.8336 C   0  0  0  0  0  0  0  0  0  0  0  0
   16.2670   -8.9226   17.2561 C   0  0  0  0  0  0  0  0  0  0  0  0
   16.3799   -8.7314   15.8707 C   0  0  0  0  0  0  0  0  0  0  0  0
   15.6142   -7.9683   18.1044 N   0  0  0  0  0  0  0  0  0  0  0  0
   14.2007   -7.7541   18.2365 C   0  0  0  0  0  0  0  0  0  0  0  0
   13.3881   -8.4514   17.5697 O   0  0  0  0  0  0  0  0  0  0  0  0
   16.1982   -7.3987   18.6555 H   0  0  0  0  0  0  0  0  0  0  0  0
   13.6811   -6.7150   19.1563 C   0  0  0  0  0  0  0  0  0  0  0  0
   12.7466   -5.7854   18.6715 C   0  0  0  0  0  0  0  0  0  0  0  0
   12.2304   -4.7890   19.5030 C   0  0  0  0  0  0  0  0  0  0  0  0
   12.6427   -4.7088   20.8335 C   0  0  0  0  0  0  0  0  0  0  0  0
   13.5710   -5.6245   21.3316 C   0  0  0  0  0  0  0  0  0  0  0  0
   14.0924   -6.6248   20.5047 C   0  0  0  0  0  0  0  0  0  0  0  0
   14.9913   -7.4921   21.0322 F   0  0  0  0  0  0  0  0  0  0  0  0
   17.1160   -9.4505   13.6935 O   0  0  0  0  0  0  0  0  0  0  0  0
   18.0553  -10.1228   12.8649 C   0  0  0  0  0  0  0  0  0  0  0  0
   17.3441   -9.0507    8.8495 N   0  0  0  0  0  0  0  0  0  0  0  0
   17.2607   -8.6358    7.5879 N   0  0  0  0  0  0  0  0  0  0  0  0
   18.3571   -7.9348    7.2099 C   0  0  0  0  0  0  0  0  0  0  0  0
   19.5022   -7.8182    8.4575 S   0  0  0  0  0  0  0  0  0  0  0  0
   18.4894   -8.6964    9.4695 C   0  0  0  0  0  0  0  0  0  0  0  0
   18.7385   -9.0386   10.7572 N   0  0  0  0  0  0  0  0  0  0  0  0
   17.8110   -9.7649   11.4428 C   0  0  0  0  0  0  0  0  0  0  0  0
   16.6063  -10.1410   10.8260 C   0  0  0  0  0  0  0  0  0  0  0  0
   16.3875   -9.7687    9.4950 C   0  0  0  0  0  0  0  0  0  0  0  0
   15.3198  -10.0948    8.9118 O   0  0  0  0  0  0  0  0  0  0  0  0
   18.5463   -7.3902    5.8385 C   0  0  0  0  0  0  0  0  0  0  0  0
   19.2470   -8.4155    4.9697 C   0  0  0  0  0  0  0  0  0  0  0  0
 20 21  1  0  0  0
 21 22  2  0  0  0
 22 23  1  0  0  0
 23 24  1  0  0  0
 24 25  2  0  0  0
 25 26  1  0  0  0
 26 19  1  0  0  0
 19 18  1  0  0  0
 18  1  1  0  0  0
  1  2  2  0  0  0
  2  3  1  0  0  0
  3  4  2  0  0  0
  4  5  1  0  0  0
  5  6  2  0  0  0
  5  7  1  0  0  0
  7  8  1  0  0  0
  8  9  2  0  0  0
  8 11  1  0  0  0
 11 12  2  0  0  0
 12 13  1  0  0  0
 13 14  2  0  0  0
 14 15  1  0  0  0
 15 16  2  0  0  0
 16 17  1  0  0  0
 26 27  2  0  0  0
 27 28  1  0  0  0
 28 29  2  0  0  0
 22 30  1  0  0  0
 30 31  1  0  0  0
 24 20  1  0  0  0
  6  1  1  0  0  0
 16 11  1  0  0  0
 28 20  1  0  0  0
  7 10  1  0  0  0
M  END
>  <minimizedAffinity>
-7.31761

>  <minimizedRMSD>
1.10229

$$$$
ChemDiv-F172-0132 MCULE-7199258780 MolPort-010-679-273 PubChem-50764261 ZINC000035378577 ZINC35378577


 26 29  0  0  0  0  0  0  0  0999 V2000
   17.3152   -9.6206   13.0775 O   0  0  0  0  0  0  0  0  0  0  0  0
   17.3379  -10.0549   14.4052 C   0  0  0  0  0  0  0  0  0  0  0  0
   17.8689  -11.3043   14.7631 C   0  0  0  0  0  0  0  0  0  0  0  0
   17.8767  -11.7077   16.1004 C   0  0  0  0  0  0  0  0  0  0  0  0
   17.3542  -10.8670   17.0867 C   0  0  0  0  0  0  0  0  0  0  0  0
   16.8203   -9.6203   16.7445 C   0  0  0  0  0  0  0  0  0  0  0  0
   16.8174   -9.2205   15.3993 C   0  0  0  0  0  0  0  0  0  0  0  0
   16.2964   -8.7850   17.7856 N   0  0  0  0  0  0  0  0  0  0  0  0
   15.1785   -7.8908   17.6881 C   0  0  0  0  0  0  0  0  0  0  0  0
   14.4966   -7.8167   16.6304 O   0  0  0  0  0  0  0  0  0  0  0  0
   16.7508   -8.8298   18.6578 H   0  0  0  0  0  0  0  0  0  0  0  0
   14.7831   -7.0763   18.8767 C   0  0  0  0  0  0  0  0  0  0  0  0
   14.8004   -7.9395   20.1254 C   0  0  0  0  0  0  0  0  0  0  0  0
   13.4853   -7.6066   19.4588 C   0  0  0  0  0  0  0  0  0  0  0  0
   18.4986   -9.4045   12.3201 C   0  0  0  0  0  0  0  0  0  0  0  0
   18.7545   -7.8171    5.1955 C   0  0  0  0  0  0  0  0  0  0  0  0
   18.5032   -8.2499    6.5950 C   0  0  0  0  0  0  0  0  0  0  0  0
   19.3497   -7.9943    7.6793 C   0  0  0  0  0  0  0  0  0  0  0  0
   18.6504   -8.6043    8.7031 C   0  0  0  0  0  0  0  0  0  0  0  0
   18.9924   -8.6783   10.0129 N   0  0  0  0  0  0  0  0  0  0  0  0
   18.1589   -9.3346   10.8744 C   0  0  0  0  0  0  0  0  0  0  0  0
   16.9580   -9.9101   10.4108 C   0  0  0  0  0  0  0  0  0  0  0  0
   16.6479   -9.8064    9.0492 C   0  0  0  0  0  0  0  0  0  0  0  0
   15.5892  -10.3057    8.5864 O   0  0  0  0  0  0  0  0  0  0  0  0
   17.5199   -9.1503    8.2469 N   0  0  0  0  0  0  0  0  0  0  0  0
   17.4400   -8.9313    6.9743 O   0  0  0  0  0  0  0  0  0  0  0  0
 16 17  1  0  0  0
 17 18  2  0  0  0
 18 19  1  0  0  0
 19 20  2  0  0  0
 20 21  1  0  0  0
 21 15  1  0  0  0
 21 22  2  0  0  0
 15  1  1  0  0  0
  1  2  1  0  0  0
  2  3  2  0  0  0
  3  4  1  0  0  0
  4  5  2  0  0  0
  5  6  1  0  0  0
  6  8  1  0  0  0
  6  7  2  0  0  0
  8  9  1  0  0  0
  9 10  2  0  0  0
  9 12  1  0  0  0
 12 13  1  0  0  0
 13 14  1  0  0  0
 14 12  1  0  0  0
  7  2  1  0  0  0
 22 23  1  0  0  0
 23 24  2  0  0  0
 23 25  1  0  0  0
 25 26  1  0  0  0
 25 19  1  0  0  0
 26 17  1  0  0  0
  8 11  1  0  0  0
M  END
>  <minimizedAffinity>
-7.31414

>  <minimizedRMSD>
1.11731

$$$$
ChemDiv-C679-4533 MCULE-1324501600 MolPort-007-655-914 PubChem-20874281 ZINC000009858741


 31 34  0  0  0  0  0  0  0  0999 V2000
   17.3829   -9.6491   13.7732 O   0  0  0  0  0  0  0  0  0  0  0  0
   17.3423   -9.9108   15.1450 C   0  0  0  0  0  0  0  0  0  0  0  0
   18.0190  -11.0048   15.7069 C   0  0  0  0  0  0  0  0  0  0  0  0
   17.9577  -11.2379   17.0829 C   0  0  0  0  0  0  0  0  0  0  0  0
   17.2210  -10.3805   17.9044 C   0  0  0  0  0  0  0  0  0  0  0  0
   16.5419   -9.2865   17.3582 C   0  0  0  0  0  0  0  0  0  0  0  0
   16.6078   -9.0584   15.9753 C   0  0  0  0  0  0  0  0  0  0  0  0
   15.7969   -8.4300   18.2344 N   0  0  0  0  0  0  0  0  0  0  0  0
   14.6331   -7.6601   17.8992 C   0  0  0  0  0  0  0  0  0  0  0  0
   14.1527   -7.6848   16.7347 O   0  0  0  0  0  0  0  0  0  0  0  0
   16.1173   -8.3631   19.1629 H   0  0  0  0  0  0  0  0  0  0  0  0
   13.9905   -6.8314   18.9242 C   0  0  0  0  0  0  0  0  0  0  0  0
   14.1664   -6.9613   20.2857 C   0  0  0  0  0  0  0  0  0  0  0  0
   13.3692   -5.9754   20.8405 C   0  0  0  0  0  0  0  0  0  0  0  0
   12.7644   -5.3144   19.7849 C   0  0  0  0  0  0  0  0  0  0  0  0
   13.1609   -5.8549   18.6581 O   0  0  0  0  0  0  0  0  0  0  0  0
   17.9679  -10.5453   12.8376 C   0  0  0  0  0  0  0  0  0  0  0  0
   17.4784   -8.9684    8.9580 N   0  0  0  0  0  0  0  0  0  0  0  0
   17.4659   -8.3982    7.7557 N   0  0  0  0  0  0  0  0  0  0  0  0
   18.6133   -7.7239    7.5003 C   0  0  0  0  0  0  0  0  0  0  0  0
   19.7053   -7.8091    8.7975 S   0  0  0  0  0  0  0  0  0  0  0  0
   18.6129   -8.7524    9.6563 C   0  0  0  0  0  0  0  0  0  0  0  0
   18.7904   -9.2567   10.9018 N   0  0  0  0  0  0  0  0  0  0  0  0
   17.8005  -10.0084   11.4615 C   0  0  0  0  0  0  0  0  0  0  0  0
   16.6052  -10.2425   10.7617 C   0  0  0  0  0  0  0  0  0  0  0  0
   16.4605   -9.7033    9.4787 C   0  0  0  0  0  0  0  0  0  0  0  0
   15.4022   -9.8977    8.8238 O   0  0  0  0  0  0  0  0  0  0  0  0
   18.8587   -6.9664    6.2334 C   0  0  0  0  0  0  0  0  0  0  0  0
   19.7400   -7.7223    5.2370 C   0  0  0  0  0  0  0  0  0  0  0  0
   20.9692   -6.9223    4.8445 C   0  0  0  0  0  0  0  0  0  0  0  0
   18.9650   -8.1486    4.0031 C   0  0  0  0  0  0  0  0  0  0  0  0
 18 19  1  0  0  0
 19 20  2  0  0  0
 20 21  1  0  0  0
 21 22  1  0  0  0
 22 23  2  0  0  0
 23 24  1  0  0  0
 24 17  1  0  0  0
 17  1  1  0  0  0
  1  2  1  0  0  0
  2  3  2  0  0  0
  3  4  1  0  0  0
  4  5  2  0  0  0
  5  6  1  0  0  0
  6  7  2  0  0  0
  6  8  1  0  0  0
  8  9  1  0  0  0
  9 10  2  0  0  0
  9 12  1  0  0  0
 12 13  2  0  0  0
 13 14  1  0  0  0
 14 15  2  0  0  0
 15 16  1  0  0  0
 24 25  2  0  0  0
 25 26  1  0  0  0
 26 27  2  0  0  0
 20 28  1  0  0  0
 28 29  1  0  0  0
 29 30  1  0  0  0
 29 31  1  0  0  0
 22 18  1  0  0  0
  7  2  1  0  0  0
 16 12  1  0  0  0
 26 18  1  0  0  0
  8 11  1  0  0  0
M  END
>  <minimizedAffinity>
-7.31365

>  <minimizedRMSD>
1.45845

$$$$
ChemDiv-G756-0933 MCULE-5374283286 MolPort-007-879-504 PubChem-46356313 ZINC000015865438 ZINC15865438


 34 37  0  0  0  0  0  0  0  0999 V2000
   17.8339   -9.3166   15.1085 C   0  0  0  0  0  0  0  0  0  0  0  0
   17.2868   -8.5944   16.1816 C   0  0  0  0  0  0  0  0  0  0  0  0
   18.1422   -8.0299   17.1423 C   0  0  0  0  0  0  0  0  0  0  0  0
   19.5259   -8.1960   17.0470 C   0  0  0  0  0  0  0  0  0  0  0  0
   20.0687   -8.9203   15.9840 C   0  0  0  0  0  0  0  0  0  0  0  0
   19.2267   -9.4809   15.0200 C   0  0  0  0  0  0  0  0  0  0  0  0
   15.8704   -8.3788   16.2399 N   0  0  0  0  0  0  0  0  0  0  0  0
   15.1639   -7.8884   17.3855 C   0  0  0  0  0  0  0  0  0  0  0  0
   14.0412   -7.3394   17.2248 O   0  0  0  0  0  0  0  0  0  0  0  0
   15.6873   -8.1124   18.7033 N   0  0  0  0  0  0  0  0  0  0  0  0
   15.3447   -8.5828   15.4330 H   0  0  0  0  0  0  0  0  0  0  0  0
   16.4835   -8.6872   18.7724 H   0  0  0  0  0  0  0  0  0  0  0  0
   15.1658   -7.5821   19.9278 C   0  0  0  0  0  0  0  0  0  0  0  0
   13.7877   -7.5677   20.2031 C   0  0  0  0  0  0  0  0  0  0  0  0
   13.3149   -7.0156   21.3967 C   0  0  0  0  0  0  0  0  0  0  0  0
   14.2069   -6.4794   22.3296 C   0  0  0  0  0  0  0  0  0  0  0  0
   13.6625   -5.8898   23.5847 C   0  0  0  0  0  0  0  0  0  0  0  0
   15.5886   -6.4840   22.0552 C   0  0  0  0  0  0  0  0  0  0  0  0
   16.5737   -5.9013   23.0098 C   0  0  0  0  0  0  0  0  0  0  0  0
   16.0563   -7.0355   20.8579 C   0  0  0  0  0  0  0  0  0  0  0  0
   16.9793   -9.8808   14.1506 O   0  0  0  0  0  0  0  0  0  0  0  0
   17.4257  -10.7975   13.1537 C   0  0  0  0  0  0  0  0  0  0  0  0
   19.9172   -7.2693    7.1958 C   0  0  0  0  0  0  0  0  0  0  0  0
   18.8229   -7.9821    7.9041 C   0  0  0  0  0  0  0  0  0  0  0  0
   19.0223   -8.4607    9.1985 C   0  0  0  0  0  0  0  0  0  0  0  0
   17.9867   -9.1311    9.8498 C   0  0  0  0  0  0  0  0  0  0  0  0
   18.1840   -9.5996   11.1106 N   0  0  0  0  0  0  0  0  0  0  0  0
   17.2016  -10.2639   11.7750 C   0  0  0  0  0  0  0  0  0  0  0  0
   15.9719  -10.4791   11.1568 C   0  0  0  0  0  0  0  0  0  0  0  0
   15.7708   -9.9900    9.8685 C   0  0  0  0  0  0  0  0  0  0  0  0
   14.6528  -10.1749    9.3134 O   0  0  0  0  0  0  0  0  0  0  0  0
   16.7752   -9.3224    9.2205 N   0  0  0  0  0  0  0  0  0  0  0  0
   16.5787   -8.8523    7.9505 C   0  0  0  0  0  0  0  0  0  0  0  0
   17.5946   -8.1749    7.2751 C   0  0  0  0  0  0  0  0  0  0  0  0
 23 24  1  0  0  0
 24 25  2  0  0  0
 25 26  1  0  0  0
 26 27  2  0  0  0
 27 28  1  0  0  0
 28 22  1  0  0  0
 28 29  2  0  0  0
 22 21  1  0  0  0
 21  1  1  0  0  0
  1  2  1  0  0  0
  2  7  1  0  0  0
  2  3  2  0  0  0
  7  8  1  0  0  0
  8  9  2  0  0  0
  8 10  1  0  0  0
 10 13  1  0  0  0
 13 14  2  0  0  0
 14 15  1  0  0  0
 15 16  2  0  0  0
 16 17  1  0  0  0
 16 18  1  0  0  0
 18 19  1  0  0  0
 18 20  2  0  0  0
 20 13  1  0  0  0
  3  4  1  0  0  0
  4  5  2  0  0  0
  5  6  1  0  0  0
  6  1  2  0  0  0
 29 30  1  0  0  0
 30 31  2  0  0  0
 30 32  1  0  0  0
 32 33  1  0  0  0
 32 26  1  0  0  0
 33 34  2  0  0  0
 34 24  1  0  0  0
  7 11  1  0  0  0
 10 12  1  0  0  0
M  END
>  <minimizedAffinity>
-7.30432

>  <minimizedRMSD>
2.10777

$$$$
ChemDiv-G357-1506 MCULE-4746233780 MolPort-007-847-551 PubChem-46343403 ZINC000021632508 ZINC21632508


 26 28  0  0  0  0  0  0  0  0999 V2000
   18.0134  -11.6948   14.1675 C   0  0  0  0  0  0  0  0  0  0  0  0
   18.4280  -12.8472   14.4728 O   0  0  0  0  0  0  0  0  0  0  0  0
   16.4611   -9.0883   17.1944 C   0  0  0  0  0  0  0  0  0  0  0  0
   16.1498   -8.8751   15.8434 C   0  0  0  0  0  0  0  0  0  0  0  0
   16.6578   -9.7257   14.8582 C   0  0  0  0  0  0  0  0  0  0  0  0
   17.4829  -10.8013   15.2097 C   0  0  0  0  0  0  0  0  0  0  0  0
   17.7934  -11.0149   16.5599 C   0  0  0  0  0  0  0  0  0  0  0  0
   17.2845  -10.1631   17.5445 C   0  0  0  0  0  0  0  0  0  0  0  0
   14.6562   -7.6285   18.2821 C   0  0  0  0  0  0  0  0  0  0  0  0
   13.8340   -7.7648   17.3381 O   0  0  0  0  0  0  0  0  0  0  0  0
   15.9524   -8.2406   18.2333 N   0  0  0  0  0  0  0  0  0  0  0  0
   16.5548   -8.0603   18.9908 H   0  0  0  0  0  0  0  0  0  0  0  0
   13.3325   -7.5651   20.3602 C   0  0  0  0  0  0  0  0  0  0  0  0
   14.2793   -6.7976   19.4587 C   0  0  0  0  0  0  0  0  0  0  0  0
   18.0552  -11.2600   12.8409 O   0  0  0  0  0  0  0  0  0  0  0  0
   18.5571   -9.9807   12.4837 C   0  0  0  0  0  0  0  0  0  0  0  0
   18.1008   -9.6349   11.1118 C   0  0  0  0  0  0  0  0  0  0  0  0
   16.8459  -10.0756   10.6607 C   0  0  0  0  0  0  0  0  0  0  0  0
   16.4253   -9.7085    9.3775 C   0  0  0  0  0  0  0  0  0  0  0  0
   15.3055  -10.0930    8.9451 O   0  0  0  0  0  0  0  0  0  0  0  0
   17.2421   -8.9318    8.6145 N   0  0  0  0  0  0  0  0  0  0  0  0
   16.9854   -8.4871    7.3543 C   0  0  0  0  0  0  0  0  0  0  0  0
   18.0042   -7.6990    6.8056 C   0  0  0  0  0  0  0  0  0  0  0  0
   19.2438   -7.5763    7.9579 S   0  0  0  0  0  0  0  0  0  0  0  0
   18.4379   -8.5172    9.0789 C   0  0  0  0  0  0  0  0  0  0  0  0
   18.8812   -8.8515   10.3155 N   0  0  0  0  0  0  0  0  0  0  0  0
 13 14  1  0  0  0
 14  9  1  0  0  0
  9 10  2  0  0  0
  9 11  1  0  0  0
 11  3  1  0  0  0
  3  4  2  0  0  0
  4  5  1  0  0  0
  5  6  2  0  0  0
  6  7  1  0  0  0
  6  1  1  0  0  0
  7  8  2  0  0  0
  8  3  1  0  0  0
  1  2  2  0  0  0
  1 15  1  0  0  0
 15 16  1  0  0  0
 16 17  1  0  0  0
 17 18  2  0  0  0
 18 19  1  0  0  0
 19 20  2  0  0  0
 19 21  1  0  0  0
 21 22  1  0  0  0
 22 23  2  0  0  0
 23 24  1  0  0  0
 24 25  1  0  0  0
 25 26  2  0  0  0
 25 21  1  0  0  0
 26 17  1  0  0  0
 11 12  1  0  0  0
M  END
>  <minimizedAffinity>
-7.30025

>  <minimizedRMSD>
1.01470

$$$$
ChemDiv-P184-1510 MCULE-4018495269 MolPort-010-922-363 PubChem-53164157 ZINC000065219996 ZINC65219996


 32 35  0  0  0  0  0  0  0  0999 V2000
   15.9811  -10.5672   10.1968 C   0  0  0  0  0  0  0  0  0  0  0  0
   16.7710   -9.6350    9.3462 C   0  0  0  0  0  0  0  0  0  0  0  0
   16.3307   -9.1105    8.1769 N   0  0  0  0  0  0  0  0  0  0  0  0
   17.2695   -8.2854    7.7254 N   0  0  0  0  0  0  0  0  0  0  0  0
   18.3000   -8.2779    8.5891 C   0  0  0  0  0  0  0  0  0  0  0  0
   19.4947   -7.5623    8.5203 C   0  0  0  0  0  0  0  0  0  0  0  0
   20.4093   -7.7331    9.5770 C   0  0  0  0  0  0  0  0  0  0  0  0
   20.1116   -8.5973   10.6558 C   0  0  0  0  0  0  0  0  0  0  0  0
   18.8955   -9.3055   10.6940 C   0  0  0  0  0  0  0  0  0  0  0  0
   18.0161   -9.1145    9.6314 C   0  0  0  0  0  0  0  0  0  0  0  0
   17.1820   -7.5638    6.4640 C   0  0  0  0  0  0  0  0  0  0  0  0
   18.4513   -7.7149    5.6979 C   0  0  0  0  0  0  0  0  0  0  0  0
   19.5308   -6.8633    5.9573 C   0  0  0  0  0  0  0  0  0  0  0  0
   20.7310   -7.0220    5.2577 C   0  0  0  0  0  0  0  0  0  0  0  0
   20.8547   -8.0356    4.3023 C   0  0  0  0  0  0  0  0  0  0  0  0
   19.7788   -8.8918    4.0475 C   0  0  0  0  0  0  0  0  0  0  0  0
   18.5785   -8.7334    4.7469 C   0  0  0  0  0  0  0  0  0  0  0  0
   16.7317  -10.4921   12.6040 C   0  0  0  0  0  0  0  0  0  0  0  0
   17.5908  -11.3888   12.3807 O   0  0  0  0  0  0  0  0  0  0  0  0
   15.8873  -10.0335   11.5455 N   0  0  0  0  0  0  0  0  0  0  0  0
   15.2212   -9.3341   11.7361 H   0  0  0  0  0  0  0  0  0  0  0  0
   16.3484   -8.8177   16.5332 C   0  0  0  0  0  0  0  0  0  0  0  0
   16.7343  -10.1516   16.3679 C   0  0  0  0  0  0  0  0  0  0  0  0
   16.8597  -10.6988   15.0880 C   0  0  0  0  0  0  0  0  0  0  0  0
   16.5997   -9.9168   13.9539 C   0  0  0  0  0  0  0  0  0  0  0  0
   16.2128   -8.5801   14.1191 C   0  0  0  0  0  0  0  0  0  0  0  0
   16.0880   -8.0342   15.3993 C   0  0  0  0  0  0  0  0  0  0  0  0
   15.1175   -7.2535   19.8685 C   0  0  0  0  0  0  0  0  0  0  0  0
   15.0512   -7.7545   18.4714 C   0  0  0  0  0  0  0  0  0  0  0  0
   13.9594   -7.6978   17.8465 O   0  0  0  0  0  0  0  0  0  0  0  0
   16.2317   -8.2927   17.8627 N   0  0  0  0  0  0  0  0  0  0  0  0
   17.0471   -8.3030   18.4144 H   0  0  0  0  0  0  0  0  0  0  0  0
 28 29  1  0  0  0
 29 30  2  0  0  0
 29 31  1  0  0  0
 31 22  1  0  0  0
 22 23  2  0  0  0
 23 24  1  0  0  0
 24 25  2  0  0  0
 25 26  1  0  0  0
 25 18  1  0  0  0
 26 27  2  0  0  0
 27 22  1  0  0  0
 18 19  2  0  0  0
 18 20  1  0  0  0
 20  1  1  0  0  0
  1  2  1  0  0  0
  2  3  2  0  0  0
  3  4  1  0  0  0
  4 11  1  0  0  0
  4  5  1  0  0  0
 11 12  1  0  0  0
 12 13  2  0  0  0
 13 14  1  0  0  0
 14 15  2  0  0  0
 15 16  1  0  0  0
 16 17  2  0  0  0
 17 12  1  0  0  0
  5  6  2  0  0  0
  6  7  1  0  0  0
  7  8  2  0  0  0
  8  9  1  0  0  0
  9 10  2  0  0  0
 10  2  1  0  0  0
 10  5  1  0  0  0
 31 32  1  0  0  0
 20 21  1  0  0  0
M  END
>  <minimizedAffinity>
-7.29263

>  <minimizedRMSD>
2.68147

$$$$
ChemDiv-C060-0129 MCULE-6501801621 MolPort-007-580-786 PubChem-22333952 ZINC000020103906


 35 37  0  0  0  0  0  0  0  0999 V2000
   18.7973   -9.8203   15.0290 C   0  0  0  0  0  0  0  0  0  0  0  0
   17.6628   -9.5625   14.1535 N   0  0  0  0  0  0  0  0  0  0  0  0
   17.2523  -10.4952   13.1535 C   0  0  0  0  0  0  0  0  0  0  0  0
   17.9217  -11.5408   12.9344 O   0  0  0  0  0  0  0  0  0  0  0  0
   17.1638   -8.7198   14.2541 H   0  0  0  0  0  0  0  0  0  0  0  0
   16.0292  -10.2164   12.3467 C   0  0  0  0  0  0  0  0  0  0  0  0
   16.3821   -9.9281   10.9607 N   0  0  0  0  0  0  0  0  0  0  0  0
   15.5409  -10.3676    9.9765 C   0  0  0  0  0  0  0  0  0  0  0  0
   15.8144  -10.1218    8.6651 N   0  0  0  0  0  0  0  0  0  0  0  0
   16.9318   -9.4298    8.3507 C   0  0  0  0  0  0  0  0  0  0  0  0
   17.8131   -8.9708    9.3075 C   0  0  0  0  0  0  0  0  0  0  0  0
   18.9127   -8.2866    8.7541 C   0  0  0  0  0  0  0  0  0  0  0  0
   20.0185   -7.6741    9.5485 C   0  0  0  0  0  0  0  0  0  0  0  0
   18.8497   -8.2296    7.3595 C   0  0  0  0  0  0  0  0  0  0  0  0
   19.8514   -7.5829    6.4672 C   0  0  0  0  0  0  0  0  0  0  0  0
   17.4591   -9.0214    6.8125 S   0  0  0  0  0  0  0  0  0  0  0  0
   17.5256   -9.2333   10.6533 C   0  0  0  0  0  0  0  0  0  0  0  0
   18.3001   -8.8348   11.5655 O   0  0  0  0  0  0  0  0  0  0  0  0
   18.4690   -9.3716   16.4431 C   0  0  0  0  0  0  0  0  0  0  0  0
   17.0989   -9.8804   16.8616 C   0  0  0  0  0  0  0  0  0  0  0  0
   15.6222   -8.3272   18.1957 N   0  0  0  0  0  0  0  0  0  0  0  0
   16.1445   -8.7416   16.9323 C   0  0  0  0  0  0  0  0  0  0  0  0
   15.8248   -8.1320   15.8747 O   0  0  0  0  0  0  0  0  0  0  0  0
   15.8641   -8.8341   19.0042 H   0  0  0  0  0  0  0  0  0  0  0  0
   14.7420   -7.1755   18.3185 C   0  0  0  0  0  0  0  0  0  0  0  0
   13.3285   -7.6268   18.6521 C   0  0  0  0  0  0  0  0  0  0  0  0
   12.8493   -7.0306   19.9727 C   0  0  0  0  0  0  0  0  0  0  0  0
   15.5701   -6.5813   23.0754 N   0  0  0  0  0  0  0  0  0  0  0  0
   14.9613   -7.9115   22.8918 C   0  0  0  0  0  0  0  0  0  0  0  0
   13.7647   -7.9119   21.9336 C   0  0  0  0  0  0  0  0  0  0  0  0
   13.9549   -6.8919   20.9115 N   0  0  0  0  0  0  0  0  0  0  0  0
   13.8325   -5.5766   21.5486 C   0  0  0  0  0  0  0  0  0  0  0  0
   14.6138   -5.4811   22.8770 C   0  0  0  0  0  0  0  0  0  0  0  0
   17.9988   -6.4813   22.8968 C   0  0  0  0  0  0  0  0  0  0  0  0
   16.6828   -6.4293   22.1447 C   0  0  0  0  0  0  0  0  0  0  0  0
 34 35  1  0  0  0
 35 28  1  0  0  0
 28 29  1  0  0  0
 29 30  1  0  0  0
 30 31  1  0  0  0
 31 27  1  0  0  0
 31 32  1  0  0  0
 27 26  1  0  0  0
 26 25  1  0  0  0
 25 21  1  0  0  0
 21 22  1  0  0  0
 22 23  2  0  0  0
 22 20  1  0  0  0
 20 19  1  0  0  0
 19  1  1  0  0  0
  1  2  1  0  0  0
  2  3  1  0  0  0
  3  4  2  0  0  0
  3  6  1  0  0  0
  6  7  1  0  0  0
  7  8  1  0  0  0
  8  9  2  0  0  0
  9 10  1  0  0  0
 10 11  2  0  0  0
 11 12  1  0  0  0
 11 17  1  0  0  0
 12 13  1  0  0  0
 12 14  2  0  0  0
 14 15  1  0  0  0
 14 16  1  0  0  0
 16 10  1  0  0  0
 17 18  2  0  0  0
 17  7  1  0  0  0
 32 33  1  0  0  0
 33 28  1  0  0  0
 21 24  1  0  0  0
  2  5  1  0  0  0
M  END
>  <minimizedAffinity>
-7.28719

>  <minimizedRMSD>
1.91484

$$$$
ChemDiv-C679-4728 MCULE-2402626671 MolPort-007-655-983 PubChem-46258414 ZINC000013368283


 34 37  0  0  0  0  0  0  0  0999 V2000
   16.9763   -9.6327   15.1102 C   0  0  0  0  0  0  0  0  0  0  0  0
   17.5420  -10.7561   15.7336 C   0  0  0  0  0  0  0  0  0  0  0  0
   17.4316  -10.9227   17.1161 C   0  0  0  0  0  0  0  0  0  0  0  0
   16.7566   -9.9693   17.8829 C   0  0  0  0  0  0  0  0  0  0  0  0
   16.1884   -8.8450   17.2753 C   0  0  0  0  0  0  0  0  0  0  0  0
   16.3028   -8.6840   15.8861 C   0  0  0  0  0  0  0  0  0  0  0  0
   15.5036   -7.8895   18.0967 N   0  0  0  0  0  0  0  0  0  0  0  0
   14.0853   -7.6769   18.1719 C   0  0  0  0  0  0  0  0  0  0  0  0
   13.2950   -8.3631   17.4681 O   0  0  0  0  0  0  0  0  0  0  0  0
   16.0652   -7.3190   18.6698 H   0  0  0  0  0  0  0  0  0  0  0  0
   13.5490   -6.6469   19.0789 C   0  0  0  0  0  0  0  0  0  0  0  0
   12.5693   -5.7480   18.6336 C   0  0  0  0  0  0  0  0  0  0  0  0
   12.0622   -4.7719   19.4952 C   0  0  0  0  0  0  0  0  0  0  0  0
   12.5305   -4.6870   20.8089 C   0  0  0  0  0  0  0  0  0  0  0  0
   13.5070   -5.5755   21.2690 C   0  0  0  0  0  0  0  0  0  0  0  0
   14.0133   -6.5545   20.3986 C   0  0  0  0  0  0  0  0  0  0  0  0
   13.9551   -5.4652   22.5881 O   0  0  0  0  0  0  0  0  0  0  0  0
   15.2486   -5.8884   22.9972 C   0  0  0  0  0  0  0  0  0  0  0  0
   17.0682   -9.4356   13.7301 O   0  0  0  0  0  0  0  0  0  0  0  0
   17.9508  -10.1841   12.9047 C   0  0  0  0  0  0  0  0  0  0  0  0
   17.3675   -9.0323    8.8909 N   0  0  0  0  0  0  0  0  0  0  0  0
   17.3214   -8.5872    7.6376 N   0  0  0  0  0  0  0  0  0  0  0  0
   18.4275   -7.8758    7.3102 C   0  0  0  0  0  0  0  0  0  0  0  0
   19.5260   -7.7727    8.5998 S   0  0  0  0  0  0  0  0  0  0  0  0
   18.4890   -8.6842    9.5563 C   0  0  0  0  0  0  0  0  0  0  0  0
   18.6966   -9.0512   10.8444 N   0  0  0  0  0  0  0  0  0  0  0  0
   17.7515   -9.7975   11.4831 C   0  0  0  0  0  0  0  0  0  0  0  0
   16.5706  -10.1674   10.8185 C   0  0  0  0  0  0  0  0  0  0  0  0
   16.3938   -9.7681    9.4892 C   0  0  0  0  0  0  0  0  0  0  0  0
   15.3474  -10.0863    8.8644 O   0  0  0  0  0  0  0  0  0  0  0  0
   18.6363   -7.2484    5.9740 C   0  0  0  0  0  0  0  0  0  0  0  0
   19.6816   -8.0037    5.1634 C   0  0  0  0  0  0  0  0  0  0  0  0
   20.9889   -7.2310    5.0845 C   0  0  0  0  0  0  0  0  0  0  0  0
   20.8072   -5.9622    4.2742 C   0  0  0  0  0  0  0  0  0  0  0  0
 21 22  1  0  0  0
 22 23  2  0  0  0
 23 24  1  0  0  0
 24 25  1  0  0  0
 25 26  2  0  0  0
 26 27  1  0  0  0
 27 20  1  0  0  0
 20 19  1  0  0  0
 19  1  1  0  0  0
  1  2  2  0  0  0
  2  3  1  0  0  0
  3  4  2  0  0  0
  4  5  1  0  0  0
  5  6  2  0  0  0
  5  7  1  0  0  0
  7  8  1  0  0  0
  8  9  2  0  0  0
  8 11  1  0  0  0
 11 12  2  0  0  0
 12 13  1  0  0  0
 13 14  2  0  0  0
 14 15  1  0  0  0
 15 17  1  0  0  0
 17 18  1  0  0  0
 15 16  2  0  0  0
 27 28  2  0  0  0
 28 29  1  0  0  0
 29 30  2  0  0  0
 23 31  1  0  0  0
 31 32  1  0  0  0
 32 33  1  0  0  0
 33 34  1  0  0  0
 25 21  1  0  0  0
  6  1  1  0  0  0
 16 11  1  0  0  0
 29 21  1  0  0  0
  7 10  1  0  0  0
M  END
>  <minimizedAffinity>
-7.28243

>  <minimizedRMSD>
1.75554

$$$$
ChemDiv-G756-1217 MCULE-7723120815 MolPort-007-879-675 PubChem-46356451 ZINC000033068062 ZINC33068062


 34 37  0  0  0  0  0  0  0  0999 V2000
   15.7367   -9.4521   15.8387 C   0  0  0  0  0  0  0  0  0  0  0  0
   16.6497  -10.1078   16.6646 C   0  0  0  0  0  0  0  0  0  0  0  0
   17.8214  -10.6457   16.1317 C   0  0  0  0  0  0  0  0  0  0  0  0
   18.1013  -10.5345   14.7663 C   0  0  0  0  0  0  0  0  0  0  0  0
   19.3704  -11.1490   14.2850 C   0  0  0  0  0  0  0  0  0  0  0  0
   17.1830   -9.8655   13.9143 C   0  0  0  0  0  0  0  0  0  0  0  0
   16.0124   -9.3364   14.4701 C   0  0  0  0  0  0  0  0  0  0  0  0
   14.4735   -7.9420   17.4794 C   0  0  0  0  0  0  0  0  0  0  0  0
   15.5148   -7.4389   17.9788 O   0  0  0  0  0  0  0  0  0  0  0  0
   14.5459   -8.9068   16.4221 N   0  0  0  0  0  0  0  0  0  0  0  0
   13.6893   -9.2285   16.0587 H   0  0  0  0  0  0  0  0  0  0  0  0
   13.1405   -7.5467   18.0153 C   0  0  0  0  0  0  0  0  0  0  0  0
   13.1379   -6.1651   18.3609 O   0  0  0  0  0  0  0  0  0  0  0  0
   13.1361   -4.3838   23.7642 C   0  0  0  0  0  0  0  0  0  0  0  0
   13.1359   -4.8393   22.3498 C   0  0  0  0  0  0  0  0  0  0  0  0
   13.3532   -6.1869   22.0495 C   0  0  0  0  0  0  0  0  0  0  0  0
   13.3522   -6.6162   20.7189 C   0  0  0  0  0  0  0  0  0  0  0  0
   13.1330   -5.7030   19.6818 C   0  0  0  0  0  0  0  0  0  0  0  0
   12.9186   -4.3490   19.9896 C   0  0  0  0  0  0  0  0  0  0  0  0
   12.9194   -3.9199   21.3198 C   0  0  0  0  0  0  0  0  0  0  0  0
   17.3577   -9.6900   12.5322 O   0  0  0  0  0  0  0  0  0  0  0  0
   18.4284   -8.9863   11.9188 C   0  0  0  0  0  0  0  0  0  0  0  0
   18.2608   -9.0127   10.4421 C   0  0  0  0  0  0  0  0  0  0  0  0
   17.2175   -9.7368    9.8732 C   0  0  0  0  0  0  0  0  0  0  0  0
   17.0677   -9.7236    8.4874 C   0  0  0  0  0  0  0  0  0  0  0  0
   16.1248  -10.3829    7.9691 O   0  0  0  0  0  0  0  0  0  0  0  0
   17.9335   -9.0025    7.7091 N   0  0  0  0  0  0  0  0  0  0  0  0
   17.7854   -8.9901    6.3506 C   0  0  0  0  0  0  0  0  0  0  0  0
   18.6571   -8.2576    5.5429 C   0  0  0  0  0  0  0  0  0  0  0  0
   19.6887   -7.5318    6.1350 C   0  0  0  0  0  0  0  0  0  0  0  0
   20.6259   -6.7459    5.2911 C   0  0  0  0  0  0  0  0  0  0  0  0
   19.8398   -7.5444    7.5203 C   0  0  0  0  0  0  0  0  0  0  0  0
   18.9517   -8.2879    8.3012 C   0  0  0  0  0  0  0  0  0  0  0  0
   19.1007   -8.2989    9.6510 N   0  0  0  0  0  0  0  0  0  0  0  0
 14 15  1  0  0  0
 15 16  2  0  0  0
 16 17  1  0  0  0
 17 18  2  0  0  0
 18 13  1  0  0  0
 18 19  1  0  0  0
 13 12  1  0  0  0
 12  8  1  0  0  0
  8  9  2  0  0  0
  8 10  1  0  0  0
 10  1  1  0  0  0
  1  2  2  0  0  0
  2  3  1  0  0  0
  3  4  2  0  0  0
  4  5  1  0  0  0
  4  6  1  0  0  0
  6 21  1  0  0  0
  6  7  2  0  0  0
 21 22  1  0  0  0
 22 23  1  0  0  0
 23 24  2  0  0  0
 24 25  1  0  0  0
 25 26  2  0  0  0
 25 27  1  0  0  0
 27 28  1  0  0  0
 28 29  2  0  0  0
 29 30  1  0  0  0
 30 31  1  0  0  0
 30 32  2  0  0  0
 32 33  1  0  0  0
 33 34  2  0  0  0
 33 27  1  0  0  0
 34 23  1  0  0  0
  7  1  1  0  0  0
 19 20  2  0  0  0
 20 15  1  0  0  0
 10 11  1  0  0  0
M  END
>  <minimizedAffinity>
-7.27767

>  <minimizedRMSD>
3.09003

$$$$
ChemDiv-G357-0999 MCULE-9620625278 MolPort-007-847-384 PubChem-46343359 ZINC000015771870


 35 38  0  0  0  0  0  0  0  0999 V2000
   17.9132  -11.3600   13.6582 C   0  0  0  0  0  0  0  0  0  0  0  0
   18.1105  -12.6032   13.7534 O   0  0  0  0  0  0  0  0  0  0  0  0
   17.4061  -10.6028   14.8139 C   0  0  0  0  0  0  0  0  0  0  0  0
   16.7555   -9.3779   14.6190 C   0  0  0  0  0  0  0  0  0  0  0  0
   16.2708   -8.6552   15.7122 C   0  0  0  0  0  0  0  0  0  0  0  0
   16.4289   -9.1484   17.0156 C   0  0  0  0  0  0  0  0  0  0  0  0
   17.0803  -10.3709   17.2093 C   0  0  0  0  0  0  0  0  0  0  0  0
   17.5648  -11.0957   16.1167 C   0  0  0  0  0  0  0  0  0  0  0  0
   15.9543   -8.4292   18.1619 N   0  0  0  0  0  0  0  0  0  0  0  0
   14.7574   -7.6401   18.2467 C   0  0  0  0  0  0  0  0  0  0  0  0
   13.9604   -7.5766   17.2715 O   0  0  0  0  0  0  0  0  0  0  0  0
   16.5064   -8.4819   18.9754 H   0  0  0  0  0  0  0  0  0  0  0  0
   14.4546   -6.9024   19.4860 C   0  0  0  0  0  0  0  0  0  0  0  0
   13.3275   -6.0700   19.5594 C   0  0  0  0  0  0  0  0  0  0  0  0
   13.0427   -5.3671   20.7337 C   0  0  0  0  0  0  0  0  0  0  0  0
   13.8839   -5.4895   21.8428 C   0  0  0  0  0  0  0  0  0  0  0  0
   15.0091   -6.3159   21.7785 C   0  0  0  0  0  0  0  0  0  0  0  0
   15.2929   -7.0200   20.6044 C   0  0  0  0  0  0  0  0  0  0  0  0
   13.6091   -4.8071   22.9801 F   0  0  0  0  0  0  0  0  0  0  0  0
   18.1829  -10.6939   12.4610 O   0  0  0  0  0  0  0  0  0  0  0  0
   17.1471  -10.1983   11.6255 C   0  0  0  0  0  0  0  0  0  0  0  0
   18.8719   -8.3146    8.2701 N   0  0  0  0  0  0  0  0  0  0  0  0
   19.3078   -7.8013    7.1223 N   0  0  0  0  0  0  0  0  0  0  0  0
   18.5014   -8.1258    6.0822 C   0  0  0  0  0  0  0  0  0  0  0  0
   17.2012   -9.1055    6.5632 S   0  0  0  0  0  0  0  0  0  0  0  0
   17.7445   -9.0470    8.1516 C   0  0  0  0  0  0  0  0  0  0  0  0
   17.1724   -9.6531    9.2206 N   0  0  0  0  0  0  0  0  0  0  0  0
   17.7442   -9.5109   10.4500 C   0  0  0  0  0  0  0  0  0  0  0  0
   18.9238   -8.7625   10.6018 C   0  0  0  0  0  0  0  0  0  0  0  0
   19.4855   -8.1561    9.4727 C   0  0  0  0  0  0  0  0  0  0  0  0
   20.5450   -7.4815    9.5749 O   0  0  0  0  0  0  0  0  0  0  0  0
   18.7782   -7.7205    4.6741 C   0  0  0  0  0  0  0  0  0  0  0  0
   20.2642   -7.4778    4.4618 C   0  0  0  0  0  0  0  0  0  0  0  0
   20.4844   -6.2400    3.6113 C   0  0  0  0  0  0  0  0  0  0  0  0
   21.9547   -5.8822    3.6096 C   0  0  0  0  0  0  0  0  0  0  0  0
 22 23  1  0  0  0
 23 24  2  0  0  0
 24 25  1  0  0  0
 25 26  1  0  0  0
 26 27  2  0  0  0
 27 28  1  0  0  0
 28 21  1  0  0  0
 21 20  1  0  0  0
 20  1  1  0  0  0
  1  2  2  0  0  0
  1  3  1  0  0  0
  3  4  2  0  0  0
  4  5  1  0  0  0
  5  6  2  0  0  0
  6  7  1  0  0  0
  7  8  2  0  0  0
  6  9  1  0  0  0
  9 10  1  0  0  0
 10 11  2  0  0  0
 10 13  1  0  0  0
 13 14  2  0  0  0
 14 15  1  0  0  0
 15 16  2  0  0  0
 16 17  1  0  0  0
 17 18  2  0  0  0
 16 19  1  0  0  0
 28 29  2  0  0  0
 29 30  1  0  0  0
 30 31  2  0  0  0
 24 32  1  0  0  0
 32 33  1  0  0  0
 33 34  1  0  0  0
 34 35  1  0  0  0
 26 22  1  0  0  0
  8  3  1  0  0  0
 18 13  1  0  0  0
 30 22  1  0  0  0
  9 12  1  0  0  0
M  END
>  <minimizedAffinity>
-7.27438

>  <minimizedRMSD>
2.21850

$$$$
ChemDiv-G756-0785 MCULE-7856691487 MolPort-010-744-671 PubChem-50802623 ZINC000033268589 ZINC33268589


 34 37  0  0  0  0  0  0  0  0999 V2000
   18.4018  -12.5979   14.2694 C   0  0  0  0  0  0  0  0  0  0  0  0
   17.8625  -11.5724   15.2042 C   0  0  0  0  0  0  0  0  0  0  0  0
   17.8309  -11.9075   16.5611 C   0  0  0  0  0  0  0  0  0  0  0  0
   17.3325  -11.0093   17.5049 C   0  0  0  0  0  0  0  0  0  0  0  0
   16.8563   -9.7600   17.1062 C   0  0  0  0  0  0  0  0  0  0  0  0
   16.8808   -9.4203   15.7465 C   0  0  0  0  0  0  0  0  0  0  0  0
   17.3800  -10.3051   14.7826 C   0  0  0  0  0  0  0  0  0  0  0  0
   16.3534   -8.8630   18.1049 N   0  0  0  0  0  0  0  0  0  0  0  0
   15.2592   -7.9476   17.9652 C   0  0  0  0  0  0  0  0  0  0  0  0
   14.6350   -7.8357   16.8770 O   0  0  0  0  0  0  0  0  0  0  0  0
   16.8072   -8.8772   18.9784 H   0  0  0  0  0  0  0  0  0  0  0  0
   14.8875   -7.0737   19.1136 C   0  0  0  0  0  0  0  0  0  0  0  0
   16.0255   -6.8322   19.9355 O   0  0  0  0  0  0  0  0  0  0  0  0
   15.9939   -6.9088   21.3356 C   0  0  0  0  0  0  0  0  0  0  0  0
   17.1346   -6.5556   22.0777 C   0  0  0  0  0  0  0  0  0  0  0  0
   18.3797   -6.1031   21.3960 C   0  0  0  0  0  0  0  0  0  0  0  0
   17.1126   -6.6297   23.4752 C   0  0  0  0  0  0  0  0  0  0  0  0
   15.9581   -7.0530   24.1408 C   0  0  0  0  0  0  0  0  0  0  0  0
   14.8195   -7.4026   23.4108 C   0  0  0  0  0  0  0  0  0  0  0  0
   14.8367   -7.3294   22.0149 C   0  0  0  0  0  0  0  0  0  0  0  0
   17.3560   -9.8633   13.4501 O   0  0  0  0  0  0  0  0  0  0  0  0
   18.4494   -9.9194   12.5449 C   0  0  0  0  0  0  0  0  0  0  0  0
   17.9708   -9.6413   11.1648 C   0  0  0  0  0  0  0  0  0  0  0  0
   16.7003  -10.0511   10.7757 C   0  0  0  0  0  0  0  0  0  0  0  0
   16.2688   -9.7629    9.4826 C   0  0  0  0  0  0  0  0  0  0  0  0
   15.1182  -10.1361    9.1274 O   0  0  0  0  0  0  0  0  0  0  0  0
   17.0851   -9.0818    8.6194 N   0  0  0  0  0  0  0  0  0  0  0  0
   16.6537   -8.8043    7.3531 C   0  0  0  0  0  0  0  0  0  0  0  0
   17.4646   -8.1075    6.4570 C   0  0  0  0  0  0  0  0  0  0  0  0
   18.7299   -7.6903    6.8630 C   0  0  0  0  0  0  0  0  0  0  0  0
   19.1765   -7.9716    8.1526 C   0  0  0  0  0  0  0  0  0  0  0  0
   20.5339   -7.5097    8.5663 C   0  0  0  0  0  0  0  0  0  0  0  0
   18.3377   -8.6780    9.0324 C   0  0  0  0  0  0  0  0  0  0  0  0
   18.7601   -8.9623   10.2947 N   0  0  0  0  0  0  0  0  0  0  0  0
  1  2  1  0  0  0
  2  3  2  0  0  0
  3  4  1  0  0  0
  4  5  2  0  0  0
  5  8  1  0  0  0
  5  6  1  0  0  0
  8  9  1  0  0  0
  9 10  2  0  0  0
  9 12  1  0  0  0
 12 13  1  0  0  0
 13 14  1  0  0  0
 14 15  2  0  0  0
 15 16  1  0  0  0
 15 17  1  0  0  0
 17 18  2  0  0  0
 18 19  1  0  0  0
 19 20  2  0  0  0
 20 14  1  0  0  0
  6  7  2  0  0  0
  7 21  1  0  0  0
  7  2  1  0  0  0
 21 22  1  0  0  0
 22 23  1  0  0  0
 23 24  2  0  0  0
 24 25  1  0  0  0
 25 26  2  0  0  0
 25 27  1  0  0  0
 27 28  1  0  0  0
 28 29  2  0  0  0
 29 30  1  0  0  0
 30 31  2  0  0  0
 31 32  1  0  0  0
 31 33  1  0  0  0
 33 34  2  0  0  0
 33 27  1  0  0  0
 34 23  1  0  0  0
  8 11  1  0  0  0
M  END
>  <minimizedAffinity>
-7.26673

>  <minimizedRMSD>
1.37614

$$$$
ChemDiv-C679-4391 MCULE-5928113841 MolPort-007-655-869 PubChem-46258353 ZINC000013368108


 32 35  0  0  0  0  0  0  0  0999 V2000
   17.3454   -9.9431   15.1319 C   0  0  0  0  0  0  0  0  0  0  0  0
   18.0293  -11.0393   15.6809 C   0  0  0  0  0  0  0  0  0  0  0  0
   17.9805  -11.2813   17.0558 C   0  0  0  0  0  0  0  0  0  0  0  0
   17.2491  -10.4310   17.8892 C   0  0  0  0  0  0  0  0  0  0  0  0
   16.5628   -9.3350   17.3562 C   0  0  0  0  0  0  0  0  0  0  0  0
   16.6161   -9.0979   15.9741 C   0  0  0  0  0  0  0  0  0  0  0  0
   15.8235   -8.4861   18.2445 N   0  0  0  0  0  0  0  0  0  0  0  0
   14.6651   -7.7012   17.9217 C   0  0  0  0  0  0  0  0  0  0  0  0
   14.1897   -7.7081   16.7535 O   0  0  0  0  0  0  0  0  0  0  0  0
   16.1441   -8.4360   19.1740 H   0  0  0  0  0  0  0  0  0  0  0  0
   14.0261   -6.8802   18.9654 C   0  0  0  0  0  0  0  0  0  0  0  0
   14.4804   -6.9402   20.2903 C   0  0  0  0  0  0  0  0  0  0  0  0
   13.8766   -6.1609   21.2905 C   0  0  0  0  0  0  0  0  0  0  0  0
   12.8121   -5.3188   20.9552 C   0  0  0  0  0  0  0  0  0  0  0  0
   12.3528   -5.2528   19.6373 C   0  0  0  0  0  0  0  0  0  0  0  0
   12.9574   -6.0304   18.6462 C   0  0  0  0  0  0  0  0  0  0  0  0
   14.3131   -6.2048   22.6174 O   0  0  0  0  0  0  0  0  0  0  0  0
   15.0049   -7.3207   23.1611 C   0  0  0  0  0  0  0  0  0  0  0  0
   17.3733   -9.6726   13.7616 O   0  0  0  0  0  0  0  0  0  0  0  0
   17.9798  -10.5465   12.8186 C   0  0  0  0  0  0  0  0  0  0  0  0
   18.5919   -7.6822    7.5006 C   0  0  0  0  0  0  0  0  0  0  0  0
   17.4477   -8.3635    7.7549 N   0  0  0  0  0  0  0  0  0  0  0  0
   17.4671   -8.9419    8.9534 N   0  0  0  0  0  0  0  0  0  0  0  0
   18.6032   -8.7254    9.6491 C   0  0  0  0  0  0  0  0  0  0  0  0
   19.6883   -7.7712    8.7927 S   0  0  0  0  0  0  0  0  0  0  0  0
   18.7882   -9.2385   10.8899 N   0  0  0  0  0  0  0  0  0  0  0  0
   17.8043   -9.9995   11.4475 C   0  0  0  0  0  0  0  0  0  0  0  0
   16.6075  -10.2345   10.7505 C   0  0  0  0  0  0  0  0  0  0  0  0
   16.4552   -9.6863    9.4722 C   0  0  0  0  0  0  0  0  0  0  0  0
   15.3956   -9.8816    8.8196 O   0  0  0  0  0  0  0  0  0  0  0  0
   20.1513   -7.3589    5.6210 C   0  0  0  0  0  0  0  0  0  0  0  0
   18.8380   -6.9258    6.2421 C   0  0  0  0  0  0  0  0  0  0  0  0
 31 32  1  0  0  0
 32 21  1  0  0  0
 21 22  2  0  0  0
 22 23  1  0  0  0
 23 24  1  0  0  0
 24 25  1  0  0  0
 24 26  2  0  0  0
 26 27  1  0  0  0
 27 20  1  0  0  0
 20 19  1  0  0  0
 19  1  1  0  0  0
  1  2  2  0  0  0
  2  3  1  0  0  0
  3  4  2  0  0  0
  4  5  1  0  0  0
  5  7  1  0  0  0
  7  8  1  0  0  0
  8  9  2  0  0  0
  8 11  1  0  0  0
 11 12  2  0  0  0
 12 13  1  0  0  0
 13 17  1  0  0  0
 17 18  1  0  0  0
 13 14  2  0  0  0
 14 15  1  0  0  0
 15 16  2  0  0  0
  5  6  2  0  0  0
 27 28  2  0  0  0
 28 29  1  0  0  0
 29 30  2  0  0  0
 25 21  1  0  0  0
  6  1  1  0  0  0
 29 23  1  0  0  0
 16 11  1  0  0  0
  7 10  1  0  0  0
M  END
>  <minimizedAffinity>
-7.26526

>  <minimizedRMSD>
0.89085

$$$$
ChemDiv-G357-0527 CHEMBL1893403 MCULE-3236993045 MolPort-007-847-222 PubChem-16027564 ZINC000008607371


 35 38  0  0  0  0  0  0  0  0999 V2000
   17.1515   -9.8629   15.1050 C   0  0  0  0  0  0  0  0  0  0  0  0
   16.7076   -8.5770   14.7710 C   0  0  0  0  0  0  0  0  0  0  0  0
   16.0189   -7.8030   15.7087 C   0  0  0  0  0  0  0  0  0  0  0  0
   15.7628   -8.3058   16.9928 C   0  0  0  0  0  0  0  0  0  0  0  0
   16.2073   -9.5892   17.3257 C   0  0  0  0  0  0  0  0  0  0  0  0
   16.8968  -10.3645   16.3890 C   0  0  0  0  0  0  0  0  0  0  0  0
   15.0681   -7.5374   17.9842 N   0  0  0  0  0  0  0  0  0  0  0  0
   13.6600   -7.2695   18.0288 C   0  0  0  0  0  0  0  0  0  0  0  0
   12.8702   -7.7863   17.1955 O   0  0  0  0  0  0  0  0  0  0  0  0
   15.6138   -7.1545   18.7087 H   0  0  0  0  0  0  0  0  0  0  0  0
   13.1136   -6.3848   19.0979 C   0  0  0  0  0  0  0  0  0  0  0  0
   13.3444   -6.9570   20.3811 O   0  0  0  0  0  0  0  0  0  0  0  0
   14.3186   -6.5242   21.2948 C   0  0  0  0  0  0  0  0  0  0  0  0
   15.5234   -7.2367   21.3260 C   0  0  0  0  0  0  0  0  0  0  0  0
   16.5521   -6.8680   22.1949 C   0  0  0  0  0  0  0  0  0  0  0  0
   16.3838   -5.7809   23.0520 C   0  0  0  0  0  0  0  0  0  0  0  0
   15.1831   -5.0695   23.0474 C   0  0  0  0  0  0  0  0  0  0  0  0
   14.1452   -5.4302   22.1815 C   0  0  0  0  0  0  0  0  0  0  0  0
   12.8716   -4.6639   22.2844 C   0  0  0  0  0  0  0  0  0  0  0  0
   17.8784  -10.6732   14.1145 C   0  0  0  0  0  0  0  0  0  0  0  0
   18.3756  -11.7841   14.4486 O   0  0  0  0  0  0  0  0  0  0  0  0
   18.0158  -10.2058   12.8057 O   0  0  0  0  0  0  0  0  0  0  0  0
   17.0226   -9.4016   12.1867 C   0  0  0  0  0  0  0  0  0  0  0  0
   17.6720   -9.2121    8.0249 N   0  0  0  0  0  0  0  0  0  0  0  0
   17.9781   -9.0312    6.7426 N   0  0  0  0  0  0  0  0  0  0  0  0
   18.9022   -8.0546    6.5735 C   0  0  0  0  0  0  0  0  0  0  0  0
   19.3947   -7.3782    8.0505 S   0  0  0  0  0  0  0  0  0  0  0  0
   18.3446   -8.4020    8.8693 C   0  0  0  0  0  0  0  0  0  0  0  0
   18.1546   -8.4543   10.2103 N   0  0  0  0  0  0  0  0  0  0  0  0
   17.2651   -9.3523   10.7208 C   0  0  0  0  0  0  0  0  0  0  0  0
   16.5450  -10.2027    9.8654 C   0  0  0  0  0  0  0  0  0  0  0  0
   16.7707  -10.1182    8.4871 C   0  0  0  0  0  0  0  0  0  0  0  0
   16.1445  -10.8701    7.6938 O   0  0  0  0  0  0  0  0  0  0  0  0
   19.4567   -7.6756    5.2460 C   0  0  0  0  0  0  0  0  0  0  0  0
   20.8869   -7.1995    5.4026 C   0  0  0  0  0  0  0  0  0  0  0  0
 24 25  1  0  0  0
 25 26  2  0  0  0
 26 27  1  0  0  0
 27 28  1  0  0  0
 28 29  2  0  0  0
 29 30  1  0  0  0
 30 23  1  0  0  0
 23 22  1  0  0  0
 22 20  1  0  0  0
 20 21  2  0  0  0
 20  1  1  0  0  0
  1  2  2  0  0  0
  2  3  1  0  0  0
  3  4  2  0  0  0
  4  5  1  0  0  0
  5  6  2  0  0  0
  4  7  1  0  0  0
  7  8  1  0  0  0
  8 11  1  0  0  0
 11 12  1  0  0  0
 12 13  1  0  0  0
 13 14  2  0  0  0
 14 15  1  0  0  0
 15 16  2  0  0  0
 16 17  1  0  0  0
 17 18  2  0  0  0
 18 19  1  0  0  0
  8  9  2  0  0  0
 30 31  2  0  0  0
 31 32  1  0  0  0
 32 33  2  0  0  0
 26 34  1  0  0  0
 34 35  1  0  0  0
 28 24  1  0  0  0
  6  1  1  0  0  0
 18 13  1  0  0  0
 32 24  1  0  0  0
  7 10  1  0  0  0
M  END
>  <minimizedAffinity>
-7.26074

>  <minimizedRMSD>
2.23000

$$$$
ChemDiv-D549-0038 MCULE-3538135713 MolPort-009-676-624 PubChem-52991767 ZINC000064370052 ZINC64370052


 34 38  0  0  0  0  0  0  0  0999 V2000
   19.1946  -10.6548   12.7050 C   0  0  0  0  0  0  0  0  0  0  0  0
   17.8069  -10.2255   12.7848 N   0  0  0  0  0  0  0  0  0  0  0  0
   16.9640  -10.3979   13.8172 C   0  0  0  0  0  0  0  0  0  0  0  0
   15.7081  -10.0365   13.4959 N   0  0  0  0  0  0  0  0  0  0  0  0
   15.7373   -9.6289   12.2348 N   0  0  0  0  0  0  0  0  0  0  0  0
   17.0122   -9.7387   11.8103 C   0  0  0  0  0  0  0  0  0  0  0  0
   17.4276   -9.4211   10.4326 C   0  0  0  0  0  0  0  0  0  0  0  0
   18.5045   -8.6167   10.0332 C   0  0  0  0  0  0  0  0  0  0  0  0
   19.3549   -7.9169   10.9375 N   0  0  0  0  0  0  0  0  0  0  0  0
   18.5904   -8.4732    8.6453 C   0  0  0  0  0  0  0  0  0  0  0  0
   19.5293   -7.7318    7.9285 C   0  0  0  0  0  0  0  0  0  0  0  0
   19.4282   -7.7068    6.5286 C   0  0  0  0  0  0  0  0  0  0  0  0
   18.3929   -8.4151    5.8879 C   0  0  0  0  0  0  0  0  0  0  0  0
   17.4847   -9.1256    6.6179 N   0  0  0  0  0  0  0  0  0  0  0  0
   17.5919   -9.1487    7.9694 C   0  0  0  0  0  0  0  0  0  0  0  0
   16.5759   -9.9252    9.0545 S   0  0  0  0  0  0  0  0  0  0  0  0
   19.2573   -8.0500   11.9081 H   0  0  0  0  0  0  0  0  0  0  0  0
   20.0400   -7.3002   10.5917 H   0  0  0  0  0  0  0  0  0  0  0  0
   17.4259  -11.0711   15.4134 S   0  0  0  0  0  0  0  0  0  0  0  0
   17.9675   -9.4543   16.0500 C   0  0  0  0  0  0  0  0  0  0  0  0
   16.8358   -8.4853   16.0544 C   0  0  0  0  0  0  0  0  0  0  0  0
   16.7965   -7.5746   15.1851 O   0  0  0  0  0  0  0  0  0  0  0  0
   15.8095   -8.5930   17.0440 N   0  0  0  0  0  0  0  0  0  0  0  0
   15.8583   -9.3302   17.6947 H   0  0  0  0  0  0  0  0  0  0  0  0
   14.6948   -7.6592   17.1313 C   0  0  0  0  0  0  0  0  0  0  0  0
   14.3547   -7.3859   18.5571 C   0  0  0  0  0  0  0  0  0  0  0  0
   15.3349   -7.5419   19.5562 C   0  0  0  0  0  0  0  0  0  0  0  0
   14.9667   -7.2608   20.8692 C   0  0  0  0  0  0  0  0  0  0  0  0
   13.7148   -6.8484   21.1947 C   0  0  0  0  0  0  0  0  0  0  0  0
   13.6376   -6.6460   22.5582 O   0  0  0  0  0  0  0  0  0  0  0  0
   14.9199   -6.9493   23.1257 C   0  0  0  0  0  0  0  0  0  0  0  0
   15.7372   -7.3372   22.0123 O   0  0  0  0  0  0  0  0  0  0  0  0
   12.7185   -6.6800   20.2365 C   0  0  0  0  0  0  0  0  0  0  0  0
   13.0529   -6.9547   18.8980 C   0  0  0  0  0  0  0  0  0  0  0  0
  1  2  1  0  0  0
  2  3  1  0  0  0
  3 19  1  0  0  0
  3  4  2  0  0  0
 19 20  1  0  0  0
 20 21  1  0  0  0
 21 22  2  0  0  0
 21 23  1  0  0  0
 23 25  1  0  0  0
 25 26  1  0  0  0
 26 27  2  0  0  0
 27 28  1  0  0  0
 28 29  2  0  0  0
 29 30  1  0  0  0
 29 33  1  0  0  0
 30 31  1  0  0  0
 31 32  1  0  0  0
 32 28  1  0  0  0
 33 34  2  0  0  0
 34 26  1  0  0  0
  4  5  1  0  0  0
  5  6  2  0  0  0
  6  7  1  0  0  0
  6  2  1  0  0  0
  7  8  2  0  0  0
  8  9  1  0  0  0
  8 10  1  0  0  0
 10 11  2  0  0  0
 11 12  1  0  0  0
 12 13  2  0  0  0
 13 14  1  0  0  0
 14 15  2  0  0  0
 15 16  1  0  0  0
 15 10  1  0  0  0
 16  7  1  0  0  0
 23 24  1  0  0  0
  9 17  1  0  0  0
  9 18  1  0  0  0
M  END
>  <minimizedAffinity>
-7.25393

>  <minimizedRMSD>
1.59824

$$$$
ChemDiv-G756-0791 MCULE-7314024324 MolPort-010-744-675 PubChem-50802633 ZINC000033268593 ZINC33268593


 34 37  0  0  0  0  0  0  0  0999 V2000
   18.4429  -12.6309   14.0955 C   0  0  0  0  0  0  0  0  0  0  0  0
   17.8877  -11.6377   15.0573 C   0  0  0  0  0  0  0  0  0  0  0  0
   17.8851  -11.9972   16.4087 C   0  0  0  0  0  0  0  0  0  0  0  0
   17.3962  -11.1207   17.3777 C   0  0  0  0  0  0  0  0  0  0  0  0
   16.9033   -9.8685   17.0103 C   0  0  0  0  0  0  0  0  0  0  0  0
   16.9042   -9.5026   15.6581 C   0  0  0  0  0  0  0  0  0  0  0  0
   17.3869  -10.3668   14.6687 C   0  0  0  0  0  0  0  0  0  0  0  0
   16.4097   -8.9933   18.0332 N   0  0  0  0  0  0  0  0  0  0  0  0
   15.4779   -7.9170   17.8653 C   0  0  0  0  0  0  0  0  0  0  0  0
   14.9942   -7.6405   16.7356 O   0  0  0  0  0  0  0  0  0  0  0  0
   16.7456   -9.1477   18.9457 H   0  0  0  0  0  0  0  0  0  0  0  0
   15.0460   -7.1332   19.0567 C   0  0  0  0  0  0  0  0  0  0  0  0
   13.7747   -6.5365   18.8191 O   0  0  0  0  0  0  0  0  0  0  0  0
   12.6001   -7.2760   18.6409 C   0  0  0  0  0  0  0  0  0  0  0  0
   11.7138   -6.9041   17.6240 C   0  0  0  0  0  0  0  0  0  0  0  0
   10.5304   -7.6212   17.4214 C   0  0  0  0  0  0  0  0  0  0  0  0
   10.2272   -8.7155   18.2365 C   0  0  0  0  0  0  0  0  0  0  0  0
    9.0808   -9.4099   18.0392 F   0  0  0  0  0  0  0  0  0  0  0  0
   11.1055   -9.0918   19.2564 C   0  0  0  0  0  0  0  0  0  0  0  0
   12.2879   -8.3745   19.4595 C   0  0  0  0  0  0  0  0  0  0  0  0
   17.3382   -9.8977   13.3462 O   0  0  0  0  0  0  0  0  0  0  0  0
   18.4633   -9.6675   12.5102 C   0  0  0  0  0  0  0  0  0  0  0  0
   18.0131   -9.5121   11.1022 C   0  0  0  0  0  0  0  0  0  0  0  0
   16.7661   -9.9891   10.7132 C   0  0  0  0  0  0  0  0  0  0  0  0
   16.3567   -9.8007    9.3947 C   0  0  0  0  0  0  0  0  0  0  0  0
   15.2270  -10.2367    9.0398 O   0  0  0  0  0  0  0  0  0  0  0  0
   17.1718   -9.1505    8.5063 N   0  0  0  0  0  0  0  0  0  0  0  0
   16.7624   -8.9689    7.2154 C   0  0  0  0  0  0  0  0  0  0  0  0
   17.5730   -8.3075    6.2928 C   0  0  0  0  0  0  0  0  0  0  0  0
   18.8156   -7.8276    6.6973 C   0  0  0  0  0  0  0  0  0  0  0  0
   19.2388   -8.0089    8.0127 C   0  0  0  0  0  0  0  0  0  0  0  0
   20.5737   -7.4870    8.4231 C   0  0  0  0  0  0  0  0  0  0  0  0
   18.4002   -8.6798    8.9193 C   0  0  0  0  0  0  0  0  0  0  0  0
   18.7992   -8.8636   10.2073 N   0  0  0  0  0  0  0  0  0  0  0  0
  1  2  1  0  0  0
  2  3  2  0  0  0
  3  4  1  0  0  0
  4  5  2  0  0  0
  5  8  1  0  0  0
  5  6  1  0  0  0
  8  9  1  0  0  0
  9 10  2  0  0  0
  9 12  1  0  0  0
 12 13  1  0  0  0
 13 14  1  0  0  0
 14 15  2  0  0  0
 15 16  1  0  0  0
 16 17  2  0  0  0
 17 18  1  0  0  0
 17 19  1  0  0  0
 19 20  2  0  0  0
 20 14  1  0  0  0
  6  7  2  0  0  0
  7 21  1  0  0  0
  7  2  1  0  0  0
 21 22  1  0  0  0
 22 23  1  0  0  0
 23 24  2  0  0  0
 24 25  1  0  0  0
 25 26  2  0  0  0
 25 27  1  0  0  0
 27 28  1  0  0  0
 28 29  2  0  0  0
 29 30  1  0  0  0
 30 31  2  0  0  0
 31 32  1  0  0  0
 31 33  1  0  0  0
 33 34  2  0  0  0
 33 27  1  0  0  0
 34 23  1  0  0  0
  8 11  1  0  0  0
M  END
>  <minimizedAffinity>
-7.25037

>  <minimizedRMSD>
1.32258

$$$$
ChemDiv-C679-4367 MCULE-7324084591 MolPort-007-655-850 PubChem-20874248 ZINC000013368073


 30 33  0  0  0  0  0  0  0  0999 V2000
   17.4126  -10.2135   13.9906 C   0  0  0  0  0  0  0  0  0  0  0  0
   18.2853  -11.2731   14.2842 C   0  0  0  0  0  0  0  0  0  0  0  0
   18.3880  -11.7578   15.5902 C   0  0  0  0  0  0  0  0  0  0  0  0
   17.6206  -11.1878   16.6093 C   0  0  0  0  0  0  0  0  0  0  0  0
   16.7468  -10.1314   16.3315 C   0  0  0  0  0  0  0  0  0  0  0  0
   16.6486   -9.6494   15.0172 C   0  0  0  0  0  0  0  0  0  0  0  0
   15.9763   -9.5731   17.4043 N   0  0  0  0  0  0  0  0  0  0  0  0
   15.3178   -8.3002   17.4154 C   0  0  0  0  0  0  0  0  0  0  0  0
   15.3715   -7.5294   16.4183 O   0  0  0  0  0  0  0  0  0  0  0  0
   15.8909  -10.1211   18.2178 H   0  0  0  0  0  0  0  0  0  0  0  0
   14.5590   -7.8916   18.6333 C   0  0  0  0  0  0  0  0  0  0  0  0
   15.4919   -7.2817   19.6790 C   0  0  0  0  0  0  0  0  0  0  0  0
   14.7400   -6.9534   20.9763 C   0  0  0  0  0  0  0  0  0  0  0  0
   13.2600   -6.6074   20.7603 C   0  0  0  0  0  0  0  0  0  0  0  0
   13.0319   -5.9729   19.3917 C   0  0  0  0  0  0  0  0  0  0  0  0
   13.4104   -6.9401   18.2627 C   0  0  0  0  0  0  0  0  0  0  0  0
   17.2857   -9.7050   12.6957 O   0  0  0  0  0  0  0  0  0  0  0  0
   18.3264   -8.9847   12.0483 C   0  0  0  0  0  0  0  0  0  0  0  0
   17.7906   -9.1686    7.8700 N   0  0  0  0  0  0  0  0  0  0  0  0
   17.7363   -9.1141    6.5414 N   0  0  0  0  0  0  0  0  0  0  0  0
   18.6882   -8.2983    6.0269 C   0  0  0  0  0  0  0  0  0  0  0  0
   19.6407   -7.5850    7.2376 S   0  0  0  0  0  0  0  0  0  0  0  0
   18.7619   -8.4040    8.4118 C   0  0  0  0  0  0  0  0  0  0  0  0
   18.9528   -8.3374    9.7520 N   0  0  0  0  0  0  0  0  0  0  0  0
   18.1481   -9.0680   10.5748 C   0  0  0  0  0  0  0  0  0  0  0  0
   17.1233   -9.8660   10.0398 C   0  0  0  0  0  0  0  0  0  0  0  0
   16.9579   -9.9063    8.6510 C   0  0  0  0  0  0  0  0  0  0  0  0
   16.0500  -10.6144    8.1399 O   0  0  0  0  0  0  0  0  0  0  0  0
   18.8275   -8.0207    4.5721 C   0  0  0  0  0  0  0  0  0  0  0  0
   20.2715   -7.6961    4.2459 C   0  0  0  0  0  0  0  0  0  0  0  0
 19 20  1  0  0  0
 20 21  2  0  0  0
 21 22  1  0  0  0
 22 23  1  0  0  0
 23 24  2  0  0  0
 24 25  1  0  0  0
 25 18  1  0  0  0
 18 17  1  0  0  0
 17  1  1  0  0  0
  1  2  2  0  0  0
  2  3  1  0  0  0
  3  4  2  0  0  0
  4  5  1  0  0  0
  5  6  2  0  0  0
  5  7  1  0  0  0
  7  8  1  0  0  0
  8 11  1  0  0  0
 11 12  1  0  0  0
 12 13  1  0  0  0
 13 14  1  0  0  0
 14 15  1  0  0  0
 15 16  1  0  0  0
  8  9  2  0  0  0
 25 26  2  0  0  0
 26 27  1  0  0  0
 27 28  2  0  0  0
 21 29  1  0  0  0
 29 30  1  0  0  0
 23 19  1  0  0  0
  6  1  1  0  0  0
 16 11  1  0  0  0
 27 19  1  0  0  0
  7 10  1  0  0  0
M  END
>  <minimizedAffinity>
-7.23656

>  <minimizedRMSD>
1.38964

$$$$
ChemDiv-C548-3427 MolPort-007-642-451 PubChem-20862313 ZINC000020281590


 31 34  0  0  0  0  0  0  0  0999 V2000
   17.1480   -9.4730   16.3493 C   0  0  0  0  0  0  0  0  0  0  0  0
   16.4978  -10.5076   15.4334 C   0  0  0  0  0  0  0  0  0  0  0  0
   17.5458  -11.4971   14.9254 C   0  0  0  0  0  0  0  0  0  0  0  0
   18.6939  -10.7806   14.2050 C   0  0  0  0  0  0  0  0  0  0  0  0
   19.3088   -9.6996   15.0977 C   0  0  0  0  0  0  0  0  0  0  0  0
   18.2503   -8.7212   15.6064 C   0  0  0  0  0  0  0  0  0  0  0  0
   15.8375   -8.5033   18.2696 N   0  0  0  0  0  0  0  0  0  0  0  0
   16.1239   -8.5191   16.8677 C   0  0  0  0  0  0  0  0  0  0  0  0
   15.5231   -7.7425   16.0754 O   0  0  0  0  0  0  0  0  0  0  0  0
   16.3339   -9.1313   18.8427 H   0  0  0  0  0  0  0  0  0  0  0  0
   12.0234   -5.4056   18.6305 C   0  0  0  0  0  0  0  0  0  0  0  0
   13.1595   -6.2361   19.1082 C   0  0  0  0  0  0  0  0  0  0  0  0
   13.5125   -6.3068   20.4557 C   0  0  0  0  0  0  0  0  0  0  0  0
   14.8361   -7.3471   20.5477 S   0  0  0  0  0  0  0  0  0  0  0  0
   14.8841   -7.6437   18.9011 C   0  0  0  0  0  0  0  0  0  0  0  0
   13.9138   -6.9723   18.2485 N   0  0  0  0  0  0  0  0  0  0  0  0
   18.2464  -10.1954   12.8698 C   0  0  0  0  0  0  0  0  0  0  0  0
   16.8144  -10.3831   12.6892 N   0  0  0  0  0  0  0  0  0  0  0  0
   16.3033   -9.6854   13.2301 H   0  0  0  0  0  0  0  0  0  0  0  0
   16.4556  -10.1981   11.0036 S   0  0  0  0  0  0  0  0  0  0  0  0
   16.3428  -11.5558   10.3666 O   0  0  0  0  0  0  0  0  0  0  0  0
   15.1455   -9.4791   10.8483 O   0  0  0  0  0  0  0  0  0  0  0  0
   17.7234   -9.2681   10.2090 C   0  0  0  0  0  0  0  0  0  0  0  0
   18.9138   -8.9842   10.8944 C   0  0  0  0  0  0  0  0  0  0  0  0
   19.9341   -8.2383   10.2855 C   0  0  0  0  0  0  0  0  0  0  0  0
   19.7840   -7.7595    8.9785 C   0  0  0  0  0  0  0  0  0  0  0  0
   18.6055   -8.0335    8.2863 C   0  0  0  0  0  0  0  0  0  0  0  0
   18.3862   -7.6027    7.0196 N   0  0  0  0  0  0  0  0  0  0  0  0
   16.8731   -8.2197    6.7621 S   0  0  0  0  0  0  0  0  0  0  0  0
   16.4541   -9.0096    8.1534 N   0  0  0  0  0  0  0  0  0  0  0  0
   17.5671   -8.7912    8.8997 C   0  0  0  0  0  0  0  0  0  0  0  0
 11 12  1  0  0  0
 12 13  2  0  0  0
 13 14  1  0  0  0
 14 15  1  0  0  0
 15  7  1  0  0  0
  7  8  1  0  0  0
  8  9  2  0  0  0
  8  1  1  0  0  0
  1  2  1  0  0  0
  2  3  1  0  0  0
  3  4  1  0  0  0
  4 17  1  0  0  0
 17 18  1  0  0  0
 18 20  1  0  0  0
 20 21  2  0  0  0
 20 22  2  0  0  0
 20 23  1  0  0  0
 23 24  2  0  0  0
 24 25  1  0  0  0
 25 26  2  0  0  0
 26 27  1  0  0  0
 27 28  2  0  0  0
 28 29  1  0  0  0
 29 30  1  0  0  0
 30 31  2  0  0  0
  4  5  1  0  0  0
  5  6  1  0  0  0
 15 16  2  0  0  0
 16 12  1  0  0  0
  6  1  1  0  0  0
 31 23  1  0  0  0
 31 27  1  0  0  0
  7 10  1  0  0  0
 18 19  1  0  0  0
M  END
>  <minimizedAffinity>
-7.23558

>  <minimizedRMSD>
1.44760

$$$$
ChemDiv-D549-1987 MCULE-9923129896 MolPort-010-800-807 PubChem-53046740 ZINC000064794202 ZINC64794202


 33 36  0  0  0  0  0  0  0  0999 V2000
   17.5450  -10.1243   12.9031 N   0  0  0  0  0  0  0  0  0  0  0  0
   16.6516  -10.2523   13.9019 C   0  0  0  0  0  0  0  0  0  0  0  0
   15.4118   -9.9134   13.5030 N   0  0  0  0  0  0  0  0  0  0  0  0
   15.5023   -9.5573   12.2295 N   0  0  0  0  0  0  0  0  0  0  0  0
   16.7978   -9.6727   11.8746 C   0  0  0  0  0  0  0  0  0  0  0  0
   17.2804   -9.3991   10.5096 C   0  0  0  0  0  0  0  0  0  0  0  0
   18.3647   -8.5922   10.1360 C   0  0  0  0  0  0  0  0  0  0  0  0
   19.1552   -7.8432   11.0551 N   0  0  0  0  0  0  0  0  0  0  0  0
   18.5220   -8.5011    8.7499 C   0  0  0  0  0  0  0  0  0  0  0  0
   19.4869   -7.7726    8.0546 C   0  0  0  0  0  0  0  0  0  0  0  0
   19.4597   -7.8033    6.6515 C   0  0  0  0  0  0  0  0  0  0  0  0
   18.4707   -8.5533    5.9858 C   0  0  0  0  0  0  0  0  0  0  0  0
   17.5358   -9.2503    6.6946 N   0  0  0  0  0  0  0  0  0  0  0  0
   17.5706   -9.2187    8.0498 C   0  0  0  0  0  0  0  0  0  0  0  0
   16.5104   -9.9702    9.1097 S   0  0  0  0  0  0  0  0  0  0  0  0
   19.0083   -7.9403   12.0238 H   0  0  0  0  0  0  0  0  0  0  0  0
   19.8482   -7.2286   10.7215 H   0  0  0  0  0  0  0  0  0  0  0  0
   19.1314  -11.9256   13.3594 C   0  0  0  0  0  0  0  0  0  0  0  0
   18.9578  -10.4847   12.9157 C   0  0  0  0  0  0  0  0  0  0  0  0
   17.0395  -10.8140   15.5604 S   0  0  0  0  0  0  0  0  0  0  0  0
   17.5866   -9.1643   16.1010 C   0  0  0  0  0  0  0  0  0  0  0  0
   16.4338   -8.3682   16.6079 C   0  0  0  0  0  0  0  0  0  0  0  0
   15.7861   -7.6456   15.8051 O   0  0  0  0  0  0  0  0  0  0  0  0
   16.0904   -8.4266   17.9989 N   0  0  0  0  0  0  0  0  0  0  0  0
   16.6737   -8.9713   18.5753 H   0  0  0  0  0  0  0  0  0  0  0  0
   14.9848   -7.7730   18.6365 C   0  0  0  0  0  0  0  0  0  0  0  0
   13.8403   -7.3843   17.9244 C   0  0  0  0  0  0  0  0  0  0  0  0
   12.7789   -6.7544   18.5804 C   0  0  0  0  0  0  0  0  0  0  0  0
   12.8467   -6.5060   19.9547 C   0  0  0  0  0  0  0  0  0  0  0  0
   13.9908   -6.8965   20.6689 C   0  0  0  0  0  0  0  0  0  0  0  0
   15.0509   -7.5268   20.0114 C   0  0  0  0  0  0  0  0  0  0  0  0
   11.7706   -5.8727   20.5825 O   0  0  0  0  0  0  0  0  0  0  0  0
   11.8859   -5.2382   21.8490 C   0  0  0  0  0  0  0  0  0  0  0  0
 18 19  1  0  0  0
 19  1  1  0  0  0
  1  2  1  0  0  0
  2 20  1  0  0  0
  2  3  2  0  0  0
 20 21  1  0  0  0
 21 22  1  0  0  0
 22 23  2  0  0  0
 22 24  1  0  0  0
 24 26  1  0  0  0
 26 27  2  0  0  0
 27 28  1  0  0  0
 28 29  2  0  0  0
 29 32  1  0  0  0
 29 30  1  0  0  0
 32 33  1  0  0  0
 30 31  2  0  0  0
 31 26  1  0  0  0
  3  4  1  0  0  0
  4  5  2  0  0  0
  5  6  1  0  0  0
  5  1  1  0  0  0
  6  7  2  0  0  0
  7  8  1  0  0  0
  7  9  1  0  0  0
  9 10  2  0  0  0
 10 11  1  0  0  0
 11 12  2  0  0  0
 12 13  1  0  0  0
 13 14  2  0  0  0
 14 15  1  0  0  0
 14  9  1  0  0  0
 15  6  1  0  0  0
 24 25  1  0  0  0
  8 16  1  0  0  0
  8 17  1  0  0  0
M  END
>  <minimizedAffinity>
-7.22824

>  <minimizedRMSD>
1.16384

$$$$
ChemDiv-G756-0575 CHEMBL1473833 MCULE-7787723167 MolPort-007-879-275 PubChem-16030283 ZINC000008673369 ZINC08673369


 33 36  0  0  0  0  0  0  0  0999 V2000
   17.2941   -9.9422   15.1523 C   0  0  0  0  0  0  0  0  0  0  0  0
   17.8280  -11.1309   15.6745 C   0  0  0  0  0  0  0  0  0  0  0  0
   17.7528  -11.3927   17.0445 C   0  0  0  0  0  0  0  0  0  0  0  0
   17.1446  -10.4700   17.8998 C   0  0  0  0  0  0  0  0  0  0  0  0
   16.6096   -9.2810   17.3935 C   0  0  0  0  0  0  0  0  0  0  0  0
   16.6877   -9.0249   16.0161 C   0  0  0  0  0  0  0  0  0  0  0  0
   15.9888   -8.3616   18.3021 N   0  0  0  0  0  0  0  0  0  0  0  0
   14.8539   -7.5274   18.0344 C   0  0  0  0  0  0  0  0  0  0  0  0
   14.3059   -7.5122   16.9007 O   0  0  0  0  0  0  0  0  0  0  0  0
   16.3823   -8.2964   19.2021 H   0  0  0  0  0  0  0  0  0  0  0  0
   14.3078   -6.6647   19.1198 C   0  0  0  0  0  0  0  0  0  0  0  0
   13.2919   -7.3572   19.8392 O   0  0  0  0  0  0  0  0  0  0  0  0
   12.1567   -7.9056   19.2319 C   0  0  0  0  0  0  0  0  0  0  0  0
   11.4147   -7.1940   18.2742 C   0  0  0  0  0  0  0  0  0  0  0  0
   10.2850   -7.7708   17.6868 C   0  0  0  0  0  0  0  0  0  0  0  0
    9.8889   -9.0601   18.0531 C   0  0  0  0  0  0  0  0  0  0  0  0
    8.7945   -9.6199   17.4841 F   0  0  0  0  0  0  0  0  0  0  0  0
   10.6216   -9.7718   19.0072 C   0  0  0  0  0  0  0  0  0  0  0  0
   11.7517   -9.1949   19.5945 C   0  0  0  0  0  0  0  0  0  0  0  0
   17.3518   -9.6496   13.7874 O   0  0  0  0  0  0  0  0  0  0  0  0
   17.9329  -10.5323   12.8367 C   0  0  0  0  0  0  0  0  0  0  0  0
   20.5385   -7.7472    9.4644 C   0  0  0  0  0  0  0  0  0  0  0  0
   19.2166   -8.0687    8.8536 C   0  0  0  0  0  0  0  0  0  0  0  0
   18.9276   -7.5942    7.5756 C   0  0  0  0  0  0  0  0  0  0  0  0
   17.6997   -7.8830    6.9861 C   0  0  0  0  0  0  0  0  0  0  0  0
   16.7680   -8.6483    7.6873 C   0  0  0  0  0  0  0  0  0  0  0  0
   17.0454   -9.1168    8.9405 N   0  0  0  0  0  0  0  0  0  0  0  0
   16.1129   -9.8635    9.6109 C   0  0  0  0  0  0  0  0  0  0  0  0
   14.9947  -10.1263    9.0886 O   0  0  0  0  0  0  0  0  0  0  0  0
   16.3878  -10.3448   10.8895 C   0  0  0  0  0  0  0  0  0  0  0  0
   17.6223  -10.0585   11.4623 C   0  0  0  0  0  0  0  0  0  0  0  0
   18.5259   -9.3089   10.7834 N   0  0  0  0  0  0  0  0  0  0  0  0
   18.2582   -8.8385    9.5348 C   0  0  0  0  0  0  0  0  0  0  0  0
 22 23  1  0  0  0
 23 24  2  0  0  0
 24 25  1  0  0  0
 25 26  2  0  0  0
 26 27  1  0  0  0
 27 28  1  0  0  0
 28 29  2  0  0  0
 28 30  1  0  0  0
 30 31  2  0  0  0
 31 21  1  0  0  0
 31 32  1  0  0  0
 21 20  1  0  0  0
 20  1  1  0  0  0
  1  2  2  0  0  0
  2  3  1  0  0  0
  3  4  2  0  0  0
  4  5  1  0  0  0
  5  7  1  0  0  0
  5  6  2  0  0  0
  7  8  1  0  0  0
  8  9  2  0  0  0
  8 11  1  0  0  0
 11 12  1  0  0  0
 12 13  1  0  0  0
 13 14  2  0  0  0
 14 15  1  0  0  0
 15 16  2  0  0  0
 16 17  1  0  0  0
 16 18  1  0  0  0
 18 19  2  0  0  0
 19 13  1  0  0  0
  6  1  1  0  0  0
 32 33  2  0  0  0
 33 23  1  0  0  0
 33 27  1  0  0  0
  7 10  1  0  0  0
M  END
>  <minimizedAffinity>
-7.22367

>  <minimizedRMSD>
1.11710

$$$$
ChemDiv-D483-1808 MCULE-7961798290 MolPort-007-710-997 PubChem-20899123 ZINC000015859291 ZINC15859291


 34 37  0  0  0  0  0  0  0  0999 V2000
   17.4083  -11.0422   15.4109 C   0  0  0  0  0  0  0  0  0  0  0  0
   16.7945   -9.8915   14.7676 N   0  0  0  0  0  0  0  0  0  0  0  0
   16.5416   -9.7027   13.4614 C   0  0  0  0  0  0  0  0  0  0  0  0
   15.9761   -8.4990   13.2413 N   0  0  0  0  0  0  0  0  0  0  0  0
   15.8614   -7.9040   14.4216 N   0  0  0  0  0  0  0  0  0  0  0  0
   16.3589   -8.7562   15.3382 C   0  0  0  0  0  0  0  0  0  0  0  0
   16.8370  -10.6967   12.3837 C   0  0  0  0  0  0  0  0  0  0  0  0
   16.9720  -10.0137   11.0522 C   0  0  0  0  0  0  0  0  0  0  0  0
   15.8999   -9.9661   10.1488 C   0  0  0  0  0  0  0  0  0  0  0  0
   14.5936  -10.6171   10.4543 C   0  0  0  0  0  0  0  0  0  0  0  0
   16.0454   -9.3227    8.9644 N   0  0  0  0  0  0  0  0  0  0  0  0
   17.2104   -8.7157    8.6267 C   0  0  0  0  0  0  0  0  0  0  0  0
   17.3091   -8.0645    7.3947 C   0  0  0  0  0  0  0  0  0  0  0  0
   18.5038   -7.4395    7.0428 C   0  0  0  0  0  0  0  0  0  0  0  0
   19.5854   -7.4698    7.9203 C   0  0  0  0  0  0  0  0  0  0  0  0
   19.4548   -8.1289    9.1439 C   0  0  0  0  0  0  0  0  0  0  0  0
   18.2827   -8.7422    9.4889 N   0  0  0  0  0  0  0  0  0  0  0  0
   18.1752   -9.3830   10.6943 C   0  0  0  0  0  0  0  0  0  0  0  0
   19.1557   -9.4127   11.4915 O   0  0  0  0  0  0  0  0  0  0  0  0
   16.4282   -8.4021   17.0917 S   0  0  0  0  0  0  0  0  0  0  0  0
   14.6603   -7.9633   17.1456 C   0  0  0  0  0  0  0  0  0  0  0  0
   14.2621   -7.2975   18.4260 C   0  0  0  0  0  0  0  0  0  0  0  0
   13.3900   -6.3903   18.3826 O   0  0  0  0  0  0  0  0  0  0  0  0
   14.8587   -7.6834   19.6742 N   0  0  0  0  0  0  0  0  0  0  0  0
   15.5342   -8.3986   19.6368 H   0  0  0  0  0  0  0  0  0  0  0  0
   14.5745   -7.1369   20.9692 C   0  0  0  0  0  0  0  0  0  0  0  0
   13.7033   -6.0519   21.1433 C   0  0  0  0  0  0  0  0  0  0  0  0
   13.4506   -5.5465   22.4213 C   0  0  0  0  0  0  0  0  0  0  0  0
   14.0651   -6.1181   23.5449 C   0  0  0  0  0  0  0  0  0  0  0  0
   14.9357   -7.2028   23.3678 C   0  0  0  0  0  0  0  0  0  0  0  0
   15.1876   -7.7074   22.0889 C   0  0  0  0  0  0  0  0  0  0  0  0
   13.8032   -5.5899   24.8979 C   0  0  0  0  0  0  0  0  0  0  0  0
   12.4822   -4.9933   25.2497 C   0  0  0  0  0  0  0  0  0  0  0  0
   14.7005   -5.6367   25.7811 O   0  0  0  0  0  0  0  0  0  0  0  0
  1  2  1  0  0  0
  2  3  1  0  0  0
  3  7  1  0  0  0
  3  4  2  0  0  0
  7  8  1  0  0  0
  8  9  2  0  0  0
  9 10  1  0  0  0
  9 11  1  0  0  0
 11 12  2  0  0  0
 12 13  1  0  0  0
 13 14  2  0  0  0
 14 15  1  0  0  0
 15 16  2  0  0  0
 16 17  1  0  0  0
 17 18  1  0  0  0
 17 12  1  0  0  0
 18 19  2  0  0  0
 18  8  1  0  0  0
  4  5  1  0  0  0
  5  6  2  0  0  0
  6 20  1  0  0  0
  6  2  1  0  0  0
 20 21  1  0  0  0
 21 22  1  0  0  0
 22 23  2  0  0  0
 22 24  1  0  0  0
 24 26  1  0  0  0
 26 27  2  0  0  0
 27 28  1  0  0  0
 28 29  2  0  0  0
 29 30  1  0  0  0
 29 32  1  0  0  0
 30 31  2  0  0  0
 31 26  1  0  0  0
 32 33  1  0  0  0
 32 34  2  0  0  0
 24 25  1  0  0  0
M  END
>  <minimizedAffinity>
-7.22228

>  <minimizedRMSD>
2.28374

$$$$
ChemDiv-C679-5949 MCULE-8164937479 MolPort-010-733-785 PubChem-51690588 ZINC000035372125


 31 34  0  0  0  0  0  0  0  0999 V2000
   16.4189   -9.1264   12.6733 O   0  0  0  0  0  0  0  0  0  0  0  0
   17.0366   -9.3746   13.9016 C   0  0  0  0  0  0  0  0  0  0  0  0
   18.2896  -10.0024   13.9830 C   0  0  0  0  0  0  0  0  0  0  0  0
   18.8792  -10.2357   15.2277 C   0  0  0  0  0  0  0  0  0  0  0  0
   18.2219   -9.8431   16.3966 C   0  0  0  0  0  0  0  0  0  0  0  0
   16.9731   -9.2166   16.3306 C   0  0  0  0  0  0  0  0  0  0  0  0
   16.3865   -8.9855   15.0770 C   0  0  0  0  0  0  0  0  0  0  0  0
   16.3307   -8.8285   17.5524 N   0  0  0  0  0  0  0  0  0  0  0  0
   15.1751   -7.9910   17.6855 C   0  0  0  0  0  0  0  0  0  0  0  0
   14.6010   -7.5065   16.6722 O   0  0  0  0  0  0  0  0  0  0  0  0
   16.7242   -9.1730   18.3865 H   0  0  0  0  0  0  0  0  0  0  0  0
   14.6503   -7.6948   19.0580 C   0  0  0  0  0  0  0  0  0  0  0  0
   13.3017   -6.9953   18.9841 C   0  0  0  0  0  0  0  0  0  0  0  0
   12.1958   -7.9227   19.4522 C   0  0  0  0  0  0  0  0  0  0  0  0
   15.6286   -6.8295   19.8377 C   0  0  0  0  0  0  0  0  0  0  0  0
   15.6015   -7.1929   21.3108 C   0  0  0  0  0  0  0  0  0  0  0  0
   16.1760  -10.1484   11.7156 C   0  0  0  0  0  0  0  0  0  0  0  0
   17.8584   -8.9947    8.0136 N   0  0  0  0  0  0  0  0  0  0  0  0
   18.5549   -8.5027    6.9453 C   0  0  0  0  0  0  0  0  0  0  0  0
   18.2090   -8.7557    5.5035 C   0  0  0  0  0  0  0  0  0  0  0  0
   19.4228   -8.5129    4.6026 C   0  0  0  0  0  0  0  0  0  0  0  0
   20.0283   -7.1364    4.8872 C   0  0  0  0  0  0  0  0  0  0  0  0
   20.5651   -7.0445    6.3210 C   0  0  0  0  0  0  0  0  0  0  0  0
   19.6191   -7.6723    7.2989 C   0  0  0  0  0  0  0  0  0  0  0  0
   19.7276   -7.5776    8.9802 S   0  0  0  0  0  0  0  0  0  0  0  0
   18.3893   -8.5752    9.1887 C   0  0  0  0  0  0  0  0  0  0  0  0
   17.8640   -8.9438   10.3826 N   0  0  0  0  0  0  0  0  0  0  0  0
   16.7772   -9.7624   10.4119 C   0  0  0  0  0  0  0  0  0  0  0  0
   16.1965  -10.2080    9.2171 C   0  0  0  0  0  0  0  0  0  0  0  0
   16.7617   -9.8108    8.0012 C   0  0  0  0  0  0  0  0  0  0  0  0
   16.2516  -10.2096    6.9204 O   0  0  0  0  0  0  0  0  0  0  0  0
 18 19  1  0  0  0
 19 20  1  0  0  0
 20 21  1  0  0  0
 21 22  1  0  0  0
 22 23  1  0  0  0
 23 24  1  0  0  0
 24 25  1  0  0  0
 25 26  1  0  0  0
 26 27  2  0  0  0
 27 28  1  0  0  0
 28 17  1  0  0  0
 17  1  1  0  0  0
  1  2  1  0  0  0
  2  3  2  0  0  0
  3  4  1  0  0  0
  4  5  2  0  0  0
  5  6  1  0  0  0
  6  7  2  0  0  0
  6  8  1  0  0  0
  8  9  1  0  0  0
  9 12  1  0  0  0
 12 13  1  0  0  0
 13 14  1  0  0  0
 12 15  1  0  0  0
 15 16  1  0  0  0
  9 10  2  0  0  0
 28 29  2  0  0  0
 29 30  1  0  0  0
 30 31  2  0  0  0
 26 18  1  0  0  0
  7  2  1  0  0  0
 30 18  1  0  0  0
 24 19  2  0  0  0
  8 11  1  0  0  0
M  END
>  <minimizedAffinity>
-7.21612

>  <minimizedRMSD>
1.39703

$$$$
ChemDiv-G756-0122 MCULE-7677404804 MolPort-007-878-992 PubChem-22580430 ZINC000021099514 ZINC21099514


 26 28  0  0  0  0  0  0  0  0999 V2000
   16.7148   -9.9898   16.9524 C   0  0  0  0  0  0  0  0  0  0  0  0
   16.7543   -9.5233   15.6295 C   0  0  0  0  0  0  0  0  0  0  0  0
   17.4946  -10.2002   14.6553 C   0  0  0  0  0  0  0  0  0  0  0  0
   18.2038  -11.3584   15.0105 C   0  0  0  0  0  0  0  0  0  0  0  0
   18.1690  -11.8283   16.3256 C   0  0  0  0  0  0  0  0  0  0  0  0
   17.4264  -11.1450   17.2920 C   0  0  0  0  0  0  0  0  0  0  0  0
   15.1655   -8.1374   17.8134 C   0  0  0  0  0  0  0  0  0  0  0  0
   15.0578   -7.5702   16.6918 O   0  0  0  0  0  0  0  0  0  0  0  0
   15.9646   -9.3167   17.9727 N   0  0  0  0  0  0  0  0  0  0  0  0
   16.0025   -9.7050   18.8766 H   0  0  0  0  0  0  0  0  0  0  0  0
   13.4392   -6.5391   18.5798 C   0  0  0  0  0  0  0  0  0  0  0  0
   14.4546   -7.5828   19.0037 C   0  0  0  0  0  0  0  0  0  0  0  0
   15.4435   -6.9740   19.9794 C   0  0  0  0  0  0  0  0  0  0  0  0
   17.5082   -9.7034   13.3496 O   0  0  0  0  0  0  0  0  0  0  0  0
   18.5796   -9.9454   12.4471 C   0  0  0  0  0  0  0  0  0  0  0  0
   18.1607   -9.5832   11.0674 C   0  0  0  0  0  0  0  0  0  0  0  0
   16.9373  -10.0251   10.5730 C   0  0  0  0  0  0  0  0  0  0  0  0
   16.5569   -9.6483    9.2859 C   0  0  0  0  0  0  0  0  0  0  0  0
   15.4500  -10.0515    8.8339 O   0  0  0  0  0  0  0  0  0  0  0  0
   17.3772   -8.8518    8.5321 N   0  0  0  0  0  0  0  0  0  0  0  0
   17.0033   -8.4829    7.2705 C   0  0  0  0  0  0  0  0  0  0  0  0
   17.8262   -7.6690    6.4900 C   0  0  0  0  0  0  0  0  0  0  0  0
   19.0425   -7.2298    7.0091 C   0  0  0  0  0  0  0  0  0  0  0  0
   19.4236   -7.6061    8.2957 C   0  0  0  0  0  0  0  0  0  0  0  0
   18.5787   -8.4222    9.0516 C   0  0  0  0  0  0  0  0  0  0  0  0
   18.9520   -8.7874   10.3052 N   0  0  0  0  0  0  0  0  0  0  0  0
 11 12  1  0  0  0
 12 13  1  0  0  0
 12  7  1  0  0  0
  7  8  2  0  0  0
  7  9  1  0  0  0
  9  1  1  0  0  0
  1  2  2  0  0  0
  2  3  1  0  0  0
  3 14  1  0  0  0
  3  4  2  0  0  0
 14 15  1  0  0  0
 15 16  1  0  0  0
 16 17  2  0  0  0
 17 18  1  0  0  0
 18 19  2  0  0  0
 18 20  1  0  0  0
 20 21  1  0  0  0
 21 22  2  0  0  0
 22 23  1  0  0  0
 23 24  2  0  0  0
 24 25  1  0  0  0
 25 26  2  0  0  0
 25 20  1  0  0  0
 26 16  1  0  0  0
  4  5  1  0  0  0
  5  6  2  0  0  0
  6  1  1  0  0  0
  9 10  1  0  0  0
M  END
>  <minimizedAffinity>
-7.19887

>  <minimizedRMSD>
0.79878

$$$$
ChemDiv-C679-4710 MCULE-8624087988 MolPort-007-655-972 PubChem-46258410 ZINC000013368266


 33 36  0  0  0  0  0  0  0  0999 V2000
   17.3258   -9.9300   14.7608 C   0  0  0  0  0  0  0  0  0  0  0  0
   17.9915  -11.0825   15.2072 C   0  0  0  0  0  0  0  0  0  0  0  0
   17.9455  -11.4427   16.5560 C   0  0  0  0  0  0  0  0  0  0  0  0
   17.2355  -10.6544   17.4656 C   0  0  0  0  0  0  0  0  0  0  0  0
   16.5669   -9.5038   17.0348 C   0  0  0  0  0  0  0  0  0  0  0  0
   16.6179   -9.1479   15.6786 C   0  0  0  0  0  0  0  0  0  0  0  0
   15.8516   -8.7199   17.9998 N   0  0  0  0  0  0  0  0  0  0  0  0
   14.7704   -7.8105   17.7435 C   0  0  0  0  0  0  0  0  0  0  0  0
   14.3387   -7.6535   16.5688 O   0  0  0  0  0  0  0  0  0  0  0  0
   16.1320   -8.8157   18.9386 H   0  0  0  0  0  0  0  0  0  0  0  0
   14.1488   -7.0503   18.8529 C   0  0  0  0  0  0  0  0  0  0  0  0
   12.9786   -6.3161   18.6006 C   0  0  0  0  0  0  0  0  0  0  0  0
   12.3592   -5.5843   19.6163 C   0  0  0  0  0  0  0  0  0  0  0  0
   12.9032   -5.5769   20.9008 C   0  0  0  0  0  0  0  0  0  0  0  0
   14.0659   -6.3011   21.1691 C   0  0  0  0  0  0  0  0  0  0  0  0
   14.6917   -7.0361   20.1569 C   0  0  0  0  0  0  0  0  0  0  0  0
   15.8190   -7.7240   20.4640 F   0  0  0  0  0  0  0  0  0  0  0  0
   17.3517   -9.5411   13.4192 O   0  0  0  0  0  0  0  0  0  0  0  0
   18.5192   -9.6381   12.6139 C   0  0  0  0  0  0  0  0  0  0  0  0
   17.4510   -9.1705    8.5620 N   0  0  0  0  0  0  0  0  0  0  0  0
   17.2481   -8.9354    7.2681 N   0  0  0  0  0  0  0  0  0  0  0  0
   18.2891   -8.2783    6.7017 C   0  0  0  0  0  0  0  0  0  0  0  0
   19.5199   -7.9441    7.8222 S   0  0  0  0  0  0  0  0  0  0  0  0
   18.6288   -8.7033    9.0270 C   0  0  0  0  0  0  0  0  0  0  0  0
   18.9917   -8.8500   10.3246 N   0  0  0  0  0  0  0  0  0  0  0  0
   18.1493   -9.4941   11.1812 C   0  0  0  0  0  0  0  0  0  0  0  0
   16.9131   -9.9835   10.7274 C   0  0  0  0  0  0  0  0  0  0  0  0
   16.5747   -9.8101    9.3809 C   0  0  0  0  0  0  0  0  0  0  0  0
   15.4748  -10.2396    8.9422 O   0  0  0  0  0  0  0  0  0  0  0  0
   18.3058   -7.8491    5.2742 C   0  0  0  0  0  0  0  0  0  0  0  0
   19.6618   -8.1304    4.6394 C   0  0  0  0  0  0  0  0  0  0  0  0
   20.4460   -6.8478    4.4024 C   0  0  0  0  0  0  0  0  0  0  0  0
   20.7295   -6.6644    2.9233 C   0  0  0  0  0  0  0  0  0  0  0  0
 20 21  1  0  0  0
 21 22  2  0  0  0
 22 23  1  0  0  0
 23 24  1  0  0  0
 24 25  2  0  0  0
 25 26  1  0  0  0
 26 19  1  0  0  0
 19 18  1  0  0  0
 18  1  1  0  0  0
  1  2  2  0  0  0
  2  3  1  0  0  0
  3  4  2  0  0  0
  4  5  1  0  0  0
  5  6  2  0  0  0
  5  7  1  0  0  0
  7  8  1  0  0  0
  8  9  2  0  0  0
  8 11  1  0  0  0
 11 12  2  0  0  0
 12 13  1  0  0  0
 13 14  2  0  0  0
 14 15  1  0  0  0
 15 16  2  0  0  0
 16 17  1  0  0  0
 26 27  2  0  0  0
 27 28  1  0  0  0
 28 29  2  0  0  0
 22 30  1  0  0  0
 30 31  1  0  0  0
 31 32  1  0  0  0
 32 33  1  0  0  0
 24 20  1  0  0  0
  6  1  1  0  0  0
 16 11  1  0  0  0
 28 20  1  0  0  0
  7 10  1  0  0  0
M  END
>  <minimizedAffinity>
-7.19727

>  <minimizedRMSD>
1.58573

$$$$
ChemDiv-D549-2968 MCULE-9417239640 MolPort-010-800-912 PubChem-53046845 ZINC000064794662 ZINC64794662


 33 36  0  0  0  0  0  0  0  0999 V2000
   16.6493   -9.6541   12.1048 C   0  0  0  0  0  0  0  0  0  0  0  0
   15.3492   -9.6861   12.4604 N   0  0  0  0  0  0  0  0  0  0  0  0
   15.3044   -9.9683   13.7547 N   0  0  0  0  0  0  0  0  0  0  0  0
   16.5774  -10.1140   14.1656 C   0  0  0  0  0  0  0  0  0  0  0  0
   17.4483   -9.9212   13.1590 N   0  0  0  0  0  0  0  0  0  0  0  0
   19.0053   -7.8847   11.1597 N   0  0  0  0  0  0  0  0  0  0  0  0
   18.1793   -8.6520   10.2881 C   0  0  0  0  0  0  0  0  0  0  0  0
   17.0948   -9.4298   10.7181 C   0  0  0  0  0  0  0  0  0  0  0  0
   16.2818  -10.0403    9.3596 S   0  0  0  0  0  0  0  0  0  0  0  0
   17.3231   -9.3408    8.2467 C   0  0  0  0  0  0  0  0  0  0  0  0
   17.2517   -9.4190    6.8949 N   0  0  0  0  0  0  0  0  0  0  0  0
   18.1769   -8.7606    6.1379 C   0  0  0  0  0  0  0  0  0  0  0  0
   19.1931   -8.0020    6.7509 C   0  0  0  0  0  0  0  0  0  0  0  0
   19.2572   -7.9222    8.1509 C   0  0  0  0  0  0  0  0  0  0  0  0
   18.3013   -8.6119    8.8962 C   0  0  0  0  0  0  0  0  0  0  0  0
   18.8825   -7.9457   12.1346 H   0  0  0  0  0  0  0  0  0  0  0  0
   19.6988   -7.2936   10.7869 H   0  0  0  0  0  0  0  0  0  0  0  0
   17.0341  -10.5632   15.8402 S   0  0  0  0  0  0  0  0  0  0  0  0
   17.3673   -8.8394   16.3207 C   0  0  0  0  0  0  0  0  0  0  0  0
   16.1472   -8.2097   16.8992 C   0  0  0  0  0  0  0  0  0  0  0  0
   15.3235   -7.6470   16.1305 O   0  0  0  0  0  0  0  0  0  0  0  0
   15.9375   -8.2442   18.3173 N   0  0  0  0  0  0  0  0  0  0  0  0
   16.6472   -8.6596   18.8587 H   0  0  0  0  0  0  0  0  0  0  0  0
   14.8005   -7.7359   19.0278 C   0  0  0  0  0  0  0  0  0  0  0  0
   13.6580   -7.2651   18.3623 C   0  0  0  0  0  0  0  0  0  0  0  0
   12.5657   -6.7823   19.0886 C   0  0  0  0  0  0  0  0  0  0  0  0
   11.4671   -6.3293   18.4387 F   0  0  0  0  0  0  0  0  0  0  0  0
   12.6071   -6.7680   20.4852 C   0  0  0  0  0  0  0  0  0  0  0  0
   13.7408   -7.2366   21.1545 C   0  0  0  0  0  0  0  0  0  0  0  0
   14.8330   -7.7190   20.4268 C   0  0  0  0  0  0  0  0  0  0  0  0
   18.8825  -10.1788   13.1790 C   0  0  0  0  0  0  0  0  0  0  0  0
   19.1710  -11.4114   13.9683 C   0  0  0  0  0  0  0  0  0  0  0  0
   18.6148  -12.5667   13.6209 C   0  0  0  0  0  0  0  0  0  0  0  0
  6  7  1  0  0  0
  7  8  2  0  0  0
  8  9  1  0  0  0
  8  1  1  0  0  0
  9 10  1  0  0  0
 10 11  2  0  0  0
 11 12  1  0  0  0
 12 13  2  0  0  0
 13 14  1  0  0  0
 14 15  2  0  0  0
 15  7  1  0  0  0
 15 10  1  0  0  0
  1  2  2  0  0  0
  2  3  1  0  0  0
  3  4  2  0  0  0
  4 18  1  0  0  0
  4  5  1  0  0  0
 18 19  1  0  0  0
 19 20  1  0  0  0
 20 21  2  0  0  0
 20 22  1  0  0  0
 22 24  1  0  0  0
 24 25  2  0  0  0
 25 26  1  0  0  0
 26 27  1  0  0  0
 26 28  2  0  0  0
 28 29  1  0  0  0
 29 30  2  0  0  0
 30 24  1  0  0  0
  5 31  1  0  0  0
  5  1  1  0  0  0
 31 32  1  0  0  0
 32 33  2  0  0  0
  6 16  1  0  0  0
  6 17  1  0  0  0
 22 23  1  0  0  0
M  END
>  <minimizedAffinity>
-7.19497

>  <minimizedRMSD>
0.90233

$$$$
ChemDiv-D103-1055 CHEMBL1429340 MCULE-8561544070 MolPort-000-816-075 PubChem-4871289 ZINC000005350168 ZINC05350168


 29 31  0  0  0  0  0  0  0  0999 V2000
   17.6603  -10.3275   13.2579 C   0  0  0  0  0  0  0  0  0  0  0  0
   17.5447  -11.5379   13.5940 O   0  0  0  0  0  0  0  0  0  0  0  0
   17.8982   -9.3252   14.2502 N   0  0  0  0  0  0  0  0  0  0  0  0
   18.0309   -8.3948   13.9569 H   0  0  0  0  0  0  0  0  0  0  0  0
   18.4368   -7.5869    5.9147 C   0  0  0  0  0  0  0  0  0  0  0  0
   18.4584   -8.0247    7.3344 C   0  0  0  0  0  0  0  0  0  0  0  0
   19.5463   -7.6969    8.1495 C   0  0  0  0  0  0  0  0  0  0  0  0
   19.5720   -8.1063    9.4861 C   0  0  0  0  0  0  0  0  0  0  0  0
   18.5093   -8.8455   10.0132 C   0  0  0  0  0  0  0  0  0  0  0  0
   18.5385   -9.2322   11.2851 O   0  0  0  0  0  0  0  0  0  0  0  0
   17.5568   -9.9378   11.8448 C   0  0  0  0  0  0  0  0  0  0  0  0
   16.4347  -10.3024   11.0886 C   0  0  0  0  0  0  0  0  0  0  0  0
   16.3604   -9.9194    9.7508 C   0  0  0  0  0  0  0  0  0  0  0  0
   15.3542  -10.2441    9.0647 O   0  0  0  0  0  0  0  0  0  0  0  0
   17.4086   -9.1781    9.1918 C   0  0  0  0  0  0  0  0  0  0  0  0
   17.3909   -8.7635    7.8526 C   0  0  0  0  0  0  0  0  0  0  0  0
   17.9528   -9.6202   15.6756 C   0  0  0  0  0  0  0  0  0  0  0  0
   16.8071   -8.9798   16.3832 C   0  0  0  0  0  0  0  0  0  0  0  0
   16.7855   -8.9351   17.7811 C   0  0  0  0  0  0  0  0  0  0  0  0
   15.7051   -8.3483   18.4463 C   0  0  0  0  0  0  0  0  0  0  0  0
   14.6429   -7.8039   17.7158 C   0  0  0  0  0  0  0  0  0  0  0  0
   14.6619   -7.8551   16.3174 C   0  0  0  0  0  0  0  0  0  0  0  0
   15.7421   -8.4419   15.6519 C   0  0  0  0  0  0  0  0  0  0  0  0
   13.2821   -7.0780   18.5508 S   0  0  0  0  0  0  0  0  0  0  0  0
   13.8341   -5.7754   19.5431 N   0  0  0  0  0  0  0  0  0  0  0  0
   12.3007   -6.5405   17.5475 O   0  0  0  0  0  0  0  0  0  0  0  0
   12.6087   -8.1112   19.4088 O   0  0  0  0  0  0  0  0  0  0  0  0
   14.2912   -5.0741   18.9603 H   0  0  0  0  0  0  0  0  0  0  0  0
   14.4976   -6.1301   20.2317 H   0  0  0  0  0  0  0  0  0  0  0  0
  5  6  1  0  0  0
  6  7  2  0  0  0
  7  8  1  0  0  0
  8  9  2  0  0  0
  9 10  1  0  0  0
 10 11  1  0  0  0
 11 12  2  0  0  0
 11  1  1  0  0  0
 12 13  1  0  0  0
 13 14  2  0  0  0
 13 15  1  0  0  0
 15 16  2  0  0  0
 15  9  1  0  0  0
 16  6  1  0  0  0
  1  2  2  0  0  0
  1  3  1  0  0  0
  3 17  1  0  0  0
 17 18  1  0  0  0
 18 19  2  0  0  0
 19 20  1  0  0  0
 20 21  2  0  0  0
 21 22  1  0  0  0
 21 24  1  0  0  0
 22 23  2  0  0  0
 23 18  1  0  0  0
 24 25  1  0  0  0
 24 26  2  0  0  0
 24 27  2  0  0  0
  3  4  1  0  0  0
 25 28  1  0  0  0
 25 29  1  0  0  0
M  END
>  <minimizedAffinity>
-7.19409

>  <minimizedRMSD>
2.61055

$$$$
ChemDiv-G357-0270 CHEMBL1395810 MCULE-5020119775 MolPort-007-847-120 PubChem-16027488 ZINC000008607154


 33 36  0  0  0  0  0  0  0  0999 V2000
   17.4322   -9.0702   15.3957 C   0  0  0  0  0  0  0  0  0  0  0  0
   18.6493   -9.2685   15.6653 O   0  0  0  0  0  0  0  0  0  0  0  0
   16.5130   -8.5957   16.4426 C   0  0  0  0  0  0  0  0  0  0  0  0
   16.8647   -8.6879   17.7963 C   0  0  0  0  0  0  0  0  0  0  0  0
   15.9875   -8.2354   18.7860 C   0  0  0  0  0  0  0  0  0  0  0  0
   14.7495   -7.6858   18.4377 C   0  0  0  0  0  0  0  0  0  0  0  0
   14.3974   -7.5934   17.0830 C   0  0  0  0  0  0  0  0  0  0  0  0
   15.2734   -8.0454   16.0925 C   0  0  0  0  0  0  0  0  0  0  0  0
   13.8773   -7.2330   19.4820 N   0  0  0  0  0  0  0  0  0  0  0  0
   12.7773   -6.3242   19.3472 C   0  0  0  0  0  0  0  0  0  0  0  0
   12.4772   -5.8250   18.2285 O   0  0  0  0  0  0  0  0  0  0  0  0
   14.0524   -7.5827   20.3855 H   0  0  0  0  0  0  0  0  0  0  0  0
   11.9800   -5.9715   20.5590 C   0  0  0  0  0  0  0  0  0  0  0  0
   11.6253   -4.4751   20.5679 C   0  0  0  0  0  0  0  0  0  0  0  0
   12.5636   -3.6790   21.4724 C   0  0  0  0  0  0  0  0  0  0  0  0
   12.4937   -4.1725   22.9239 C   0  0  0  0  0  0  0  0  0  0  0  0
   12.2054   -5.6751   23.0519 C   0  0  0  0  0  0  0  0  0  0  0  0
   12.6978   -6.4460   21.8310 C   0  0  0  0  0  0  0  0  0  0  0  0
   16.9510   -9.2990   14.1047 O   0  0  0  0  0  0  0  0  0  0  0  0
   17.4187  -10.3779   13.3087 C   0  0  0  0  0  0  0  0  0  0  0  0
   17.2847   -9.2248    9.2550 N   0  0  0  0  0  0  0  0  0  0  0  0
   16.2267   -9.9165    9.7548 C   0  0  0  0  0  0  0  0  0  0  0  0
   15.2351  -10.1947    9.0296 O   0  0  0  0  0  0  0  0  0  0  0  0
   16.2539  -10.3156   11.0956 C   0  0  0  0  0  0  0  0  0  0  0  0
   17.3777   -9.9918   11.8737 C   0  0  0  0  0  0  0  0  0  0  0  0
   18.4117   -9.2888   11.3308 N   0  0  0  0  0  0  0  0  0  0  0  0
   18.3482   -8.9202   10.0281 C   0  0  0  0  0  0  0  0  0  0  0  0
   19.5127   -8.0601    9.1777 S   0  0  0  0  0  0  0  0  0  0  0  0
   18.5427   -8.1240    7.7800 C   0  0  0  0  0  0  0  0  0  0  0  0
   17.3818   -8.7868    8.0019 N   0  0  0  0  0  0  0  0  0  0  0  0
   18.8951   -7.5337    6.4548 C   0  0  0  0  0  0  0  0  0  0  0  0
   18.4213   -8.4310    5.3281 C   0  0  0  0  0  0  0  0  0  0  0  0
   20.3920   -7.3163    6.3485 C   0  0  0  0  0  0  0  0  0  0  0  0
 21 22  1  0  0  0
 22 23  2  0  0  0
 22 24  1  0  0  0
 24 25  2  0  0  0
 25 26  1  0  0  0
 26 27  2  0  0  0
 27 28  1  0  0  0
 28 29  1  0  0  0
 29 31  1  0  0  0
 31 32  1  0  0  0
 31 33  1  0  0  0
 29 30  2  0  0  0
 25 20  1  0  0  0
 20 19  1  0  0  0
 19  1  1  0  0  0
  1  2  2  0  0  0
  1  3  1  0  0  0
  3  4  2  0  0  0
  4  5  1  0  0  0
  5  6  2  0  0  0
  6  7  1  0  0  0
  7  8  2  0  0  0
  6  9  1  0  0  0
  9 10  1  0  0  0
 10 13  1  0  0  0
 13 14  1  0  0  0
 14 15  1  0  0  0
 15 16  1  0  0  0
 16 17  1  0  0  0
 17 18  1  0  0  0
 10 11  2  0  0  0
 27 21  1  0  0  0
  8  3  1  0  0  0
 18 13  1  0  0  0
 30 21  1  0  0  0
  9 12  1  0  0  0
M  END
>  <minimizedAffinity>
-7.19109

>  <minimizedRMSD>
2.64632

$$$$
ChemDiv-G357-0532 MCULE-9467320619 MolPort-007-847-226 PubChem-20953007 ZINC000015771626


 35 38  0  0  0  0  0  0  0  0999 V2000
   17.6051   -9.7358   14.9753 C   0  0  0  0  0  0  0  0  0  0  0  0
   16.9229   -8.5400   14.7175 C   0  0  0  0  0  0  0  0  0  0  0  0
   16.1334   -7.9509   15.7086 C   0  0  0  0  0  0  0  0  0  0  0  0
   16.0145   -8.5507   16.9709 C   0  0  0  0  0  0  0  0  0  0  0  0
   16.6977   -9.7435   17.2281 C   0  0  0  0  0  0  0  0  0  0  0  0
   17.4879  -10.3338   16.2379 C   0  0  0  0  0  0  0  0  0  0  0  0
   15.2164   -7.9742   18.0136 N   0  0  0  0  0  0  0  0  0  0  0  0
   13.8378   -7.5887   17.9243 C   0  0  0  0  0  0  0  0  0  0  0  0
   13.1709   -7.7875   16.8747 O   0  0  0  0  0  0  0  0  0  0  0  0
   15.6605   -7.8279   18.8799 H   0  0  0  0  0  0  0  0  0  0  0  0
   13.1685   -6.9709   19.1053 C   0  0  0  0  0  0  0  0  0  0  0  0
   14.1247   -6.6667   20.1160 O   0  0  0  0  0  0  0  0  0  0  0  0
   13.9509   -5.6959   21.1134 C   0  0  0  0  0  0  0  0  0  0  0  0
   14.4095   -5.9968   22.4011 C   0  0  0  0  0  0  0  0  0  0  0  0
   14.2728   -5.0739   23.4408 C   0  0  0  0  0  0  0  0  0  0  0  0
   13.6701   -3.8381   23.2017 C   0  0  0  0  0  0  0  0  0  0  0  0
   13.1987   -3.5274   21.9246 C   0  0  0  0  0  0  0  0  0  0  0  0
   13.3328   -4.4464   20.8790 C   0  0  0  0  0  0  0  0  0  0  0  0
   12.8345   -4.1160   19.6628 F   0  0  0  0  0  0  0  0  0  0  0  0
   18.4333  -10.3541   13.9275 C   0  0  0  0  0  0  0  0  0  0  0  0
   19.1919  -11.3225   14.2100 O   0  0  0  0  0  0  0  0  0  0  0  0
   18.3755   -9.8637   12.6211 O   0  0  0  0  0  0  0  0  0  0  0  0
   17.1408   -9.5814   11.9788 C   0  0  0  0  0  0  0  0  0  0  0  0
   17.7460   -9.0710    7.8371 N   0  0  0  0  0  0  0  0  0  0  0  0
   18.0484   -8.8015    6.5693 N   0  0  0  0  0  0  0  0  0  0  0  0
   19.0214   -7.8639    6.4673 C   0  0  0  0  0  0  0  0  0  0  0  0
   19.5638   -7.3383    7.9875 S   0  0  0  0  0  0  0  0  0  0  0  0
   18.4692   -8.3698    8.7353 C   0  0  0  0  0  0  0  0  0  0  0  0
   18.2930   -8.5255   10.0702 N   0  0  0  0  0  0  0  0  0  0  0  0
   17.3648   -9.4176   10.5180 C   0  0  0  0  0  0  0  0  0  0  0  0
   16.5905  -10.1543    9.6066 C   0  0  0  0  0  0  0  0  0  0  0  0
   16.8033   -9.9648    8.2367 C   0  0  0  0  0  0  0  0  0  0  0  0
   16.1284  -10.6136    7.3939 O   0  0  0  0  0  0  0  0  0  0  0  0
   19.5813   -7.4055    5.1674 C   0  0  0  0  0  0  0  0  0  0  0  0
   21.0693   -7.1558    5.3074 C   0  0  0  0  0  0  0  0  0  0  0  0
 24 25  1  0  0  0
 25 26  2  0  0  0
 26 27  1  0  0  0
 27 28  1  0  0  0
 28 29  2  0  0  0
 29 30  1  0  0  0
 30 23  1  0  0  0
 23 22  1  0  0  0
 22 20  1  0  0  0
 20 21  2  0  0  0
 20  1  1  0  0  0
  1  2  2  0  0  0
  2  3  1  0  0  0
  3  4  2  0  0  0
  4  5  1  0  0  0
  5  6  2  0  0  0
  4  7  1  0  0  0
  7  8  1  0  0  0
  8 11  1  0  0  0
 11 12  1  0  0  0
 12 13  1  0  0  0
 13 14  2  0  0  0
 14 15  1  0  0  0
 15 16  2  0  0  0
 16 17  1  0  0  0
 17 18  2  0  0  0
 18 19  1  0  0  0
  8  9  2  0  0  0
 30 31  2  0  0  0
 31 32  1  0  0  0
 32 33  2  0  0  0
 26 34  1  0  0  0
 34 35  1  0  0  0
 28 24  1  0  0  0
  6  1  1  0  0  0
 18 13  1  0  0  0
 32 24  1  0  0  0
  7 10  1  0  0  0
M  END
>  <minimizedAffinity>
-7.18838

>  <minimizedRMSD>
2.43260

$$$$
ChemDiv-G756-0800 MCULE-4167937713 MolPort-010-744-679 PubChem-50802645 ZINC000033268598 ZINC33268598


 33 36  0  0  0  0  0  0  0  0999 V2000
   16.7418   -9.9705   16.8078 C   0  0  0  0  0  0  0  0  0  0  0  0
   17.3830  -11.1610   17.1517 C   0  0  0  0  0  0  0  0  0  0  0  0
   18.0318  -11.9191   16.1768 C   0  0  0  0  0  0  0  0  0  0  0  0
   18.0479  -11.5022   14.8424 C   0  0  0  0  0  0  0  0  0  0  0  0
   18.7835  -12.3645   13.8741 C   0  0  0  0  0  0  0  0  0  0  0  0
   17.3953  -10.2947   14.4770 C   0  0  0  0  0  0  0  0  0  0  0  0
   16.7554   -9.5474   15.4724 C   0  0  0  0  0  0  0  0  0  0  0  0
   15.2473   -8.0653   17.6618 C   0  0  0  0  0  0  0  0  0  0  0  0
   14.9984   -7.6227   16.5073 O   0  0  0  0  0  0  0  0  0  0  0  0
   16.0901   -9.2149   17.8380 N   0  0  0  0  0  0  0  0  0  0  0  0
   16.2358   -9.5161   18.7639 H   0  0  0  0  0  0  0  0  0  0  0  0
   13.5567   -6.1315   21.0945 C   0  0  0  0  0  0  0  0  0  0  0  0
   12.9135   -6.0527   19.8490 C   0  0  0  0  0  0  0  0  0  0  0  0
   13.4651   -6.6827   18.7303 C   0  0  0  0  0  0  0  0  0  0  0  0
   14.6644   -7.4001   18.8404 C   0  0  0  0  0  0  0  0  0  0  0  0
   15.3032   -7.4780   20.0857 C   0  0  0  0  0  0  0  0  0  0  0  0
   14.7523   -6.8475   21.2048 C   0  0  0  0  0  0  0  0  0  0  0  0
   13.0863   -4.1059   22.4340 C   0  0  0  0  0  0  0  0  0  0  0  0
   13.0317   -5.5113   22.2318 O   0  0  0  0  0  0  0  0  0  0  0  0
   17.3439   -9.7788   13.1719 O   0  0  0  0  0  0  0  0  0  0  0  0
   18.4703   -9.4469   12.3728 C   0  0  0  0  0  0  0  0  0  0  0  0
   18.0666   -9.3818   10.9438 C   0  0  0  0  0  0  0  0  0  0  0  0
   16.8524   -9.9242   10.5372 C   0  0  0  0  0  0  0  0  0  0  0  0
   16.4889   -9.8273    9.1956 C   0  0  0  0  0  0  0  0  0  0  0  0
   15.3899  -10.3238    8.8248 O   0  0  0  0  0  0  0  0  0  0  0  0
   17.3173   -9.2027    8.3011 N   0  0  0  0  0  0  0  0  0  0  0  0
   16.9551   -9.1140    6.9865 C   0  0  0  0  0  0  0  0  0  0  0  0
   17.7781   -8.4774    6.0579 C   0  0  0  0  0  0  0  0  0  0  0  0
   18.9839   -7.9249    6.4810 C   0  0  0  0  0  0  0  0  0  0  0  0
   19.3596   -8.0125    7.8201 C   0  0  0  0  0  0  0  0  0  0  0  0
   20.6553   -7.4125    8.2504 C   0  0  0  0  0  0  0  0  0  0  0  0
   18.5104   -8.6624    8.7319 C   0  0  0  0  0  0  0  0  0  0  0  0
   18.8646   -8.7577   10.0425 N   0  0  0  0  0  0  0  0  0  0  0  0
 18 19  1  0  0  0
 19 12  1  0  0  0
 12 13  2  0  0  0
 13 14  1  0  0  0
 14 15  2  0  0  0
 15 16  1  0  0  0
 15  8  1  0  0  0
 16 17  2  0  0  0
 17 12  1  0  0  0
  8  9  2  0  0  0
  8 10  1  0  0  0
 10  1  1  0  0  0
  1  2  2  0  0  0
  2  3  1  0  0  0
  3  4  2  0  0  0
  4  5  1  0  0  0
  4  6  1  0  0  0
  6 20  1  0  0  0
  6  7  2  0  0  0
 20 21  1  0  0  0
 21 22  1  0  0  0
 22 23  2  0  0  0
 23 24  1  0  0  0
 24 25  2  0  0  0
 24 26  1  0  0  0
 26 27  1  0  0  0
 27 28  2  0  0  0
 28 29  1  0  0  0
 29 30  2  0  0  0
 30 31  1  0  0  0
 30 32  1  0  0  0
 32 33  2  0  0  0
 32 26  1  0  0  0
 33 22  1  0  0  0
  7  1  1  0  0  0
 10 11  1  0  0  0
M  END
>  <minimizedAffinity>
-7.18303

>  <minimizedRMSD>
1.05765

$$$$
ChemDiv-C679-3999 MCULE-3983059820 MolPort-007-655-731 PubChem-46258298 ZINC000020859118


 30 33  0  0  0  0  0  0  0  0999 V2000
   17.3414   -9.9294   15.1209 C   0  0  0  0  0  0  0  0  0  0  0  0
   18.0077  -11.0380   15.6665 C   0  0  0  0  0  0  0  0  0  0  0  0
   17.9547  -11.2839   17.0405 C   0  0  0  0  0  0  0  0  0  0  0  0
   17.2371  -10.4246   17.8765 C   0  0  0  0  0  0  0  0  0  0  0  0
   16.5692   -9.3156   17.3471 C   0  0  0  0  0  0  0  0  0  0  0  0
   16.6260   -9.0752   15.9657 C   0  0  0  0  0  0  0  0  0  0  0  0
   15.8423   -8.4588   18.2380 N   0  0  0  0  0  0  0  0  0  0  0  0
   14.6694   -7.6902   17.9290 C   0  0  0  0  0  0  0  0  0  0  0  0
   14.1773   -7.7088   16.7679 O   0  0  0  0  0  0  0  0  0  0  0  0
   16.1836   -8.3902   19.1589 H   0  0  0  0  0  0  0  0  0  0  0  0
   14.0367   -6.8704   18.9774 C   0  0  0  0  0  0  0  0  0  0  0  0
   14.5173   -6.9105   20.2945 C   0  0  0  0  0  0  0  0  0  0  0  0
   13.9188   -6.1324   21.2896 C   0  0  0  0  0  0  0  0  0  0  0  0
   12.8358   -5.3079   20.9747 C   0  0  0  0  0  0  0  0  0  0  0  0
   12.3506   -5.2612   19.6653 C   0  0  0  0  0  0  0  0  0  0  0  0
   12.9485   -6.0398   18.6703 C   0  0  0  0  0  0  0  0  0  0  0  0
   12.0871   -4.3332   22.2206 Cl  0  0  0  0  0  0  0  0  0  0  0  0
   17.3736   -9.6553   13.7514 O   0  0  0  0  0  0  0  0  0  0  0  0
   18.0008  -10.5167   12.8106 C   0  0  0  0  0  0  0  0  0  0  0  0
   17.4559   -8.9424    8.9373 N   0  0  0  0  0  0  0  0  0  0  0  0
   17.4271   -8.3752    7.7338 N   0  0  0  0  0  0  0  0  0  0  0  0
   18.5623   -7.6848    7.4712 C   0  0  0  0  0  0  0  0  0  0  0  0
   19.6678   -7.7571    8.7560 S   0  0  0  0  0  0  0  0  0  0  0  0
   18.5933   -8.7111    9.6260 C   0  0  0  0  0  0  0  0  0  0  0  0
   18.7888   -9.2143   10.8692 N   0  0  0  0  0  0  0  0  0  0  0  0
   17.8130   -9.9776   11.4380 C   0  0  0  0  0  0  0  0  0  0  0  0
   16.6158  -10.2286   10.7481 C   0  0  0  0  0  0  0  0  0  0  0  0
   16.4529   -9.6917    9.4663 C   0  0  0  0  0  0  0  0  0  0  0  0
   15.3927   -9.9018    8.8198 O   0  0  0  0  0  0  0  0  0  0  0  0
   18.7977   -6.9545    6.1987 C   0  0  0  0  0  0  0  0  0  0  0  0
 20 21  1  0  0  0
 21 22  2  0  0  0
 22 23  1  0  0  0
 23 24  1  0  0  0
 24 25  2  0  0  0
 25 26  1  0  0  0
 26 19  1  0  0  0
 19 18  1  0  0  0
 18  1  1  0  0  0
  1  2  2  0  0  0
  2  3  1  0  0  0
  3  4  2  0  0  0
  4  5  1  0  0  0
  5  6  2  0  0  0
  5  7  1  0  0  0
  7  8  1  0  0  0
  8  9  2  0  0  0
  8 11  1  0  0  0
 11 12  2  0  0  0
 12 13  1  0  0  0
 13 14  2  0  0  0
 14 15  1  0  0  0
 15 16  2  0  0  0
 14 17  1  0  0  0
 26 27  2  0  0  0
 27 28  1  0  0  0
 28 29  2  0  0  0
 22 30  1  0  0  0
 24 20  1  0  0  0
  6  1  1  0  0  0
 16 11  1  0  0  0
 28 20  1  0  0  0
  7 10  1  0  0  0
M  END
>  <minimizedAffinity>
-7.16508

>  <minimizedRMSD>
0.88758

$$$$
ChemDiv-C679-5544 MCULE-2696034738 MolPort-007-656-127 PubChem-46258480 ZINC000020859424


 30 33  0  0  0  0  0  0  0  0999 V2000
   17.0170   -9.6623   14.9939 C   0  0  0  0  0  0  0  0  0  0  0  0
   17.5424  -10.8280   15.5731 C   0  0  0  0  0  0  0  0  0  0  0  0
   17.4186  -11.0474   16.9472 C   0  0  0  0  0  0  0  0  0  0  0  0
   16.7699  -10.1049   17.7493 C   0  0  0  0  0  0  0  0  0  0  0  0
   16.2414   -8.9390   17.1858 C   0  0  0  0  0  0  0  0  0  0  0  0
   16.3695   -8.7250   15.8049 C   0  0  0  0  0  0  0  0  0  0  0  0
   15.5827   -7.9963   18.0426 N   0  0  0  0  0  0  0  0  0  0  0  0
   14.1698   -7.7572   18.1357 C   0  0  0  0  0  0  0  0  0  0  0  0
   13.3600   -8.4068   17.4195 O   0  0  0  0  0  0  0  0  0  0  0  0
   16.1602   -7.4560   18.6290 H   0  0  0  0  0  0  0  0  0  0  0  0
   13.6615   -6.7436   19.0771 C   0  0  0  0  0  0  0  0  0  0  0  0
   14.1128   -6.7203   20.4050 C   0  0  0  0  0  0  0  0  0  0  0  0
   13.6312   -5.7594   21.2988 C   0  0  0  0  0  0  0  0  0  0  0  0
   12.6947   -4.8146   20.8710 C   0  0  0  0  0  0  0  0  0  0  0  0
   12.2395   -4.8303   19.5500 C   0  0  0  0  0  0  0  0  0  0  0  0
   12.7211   -5.7912   18.6562 C   0  0  0  0  0  0  0  0  0  0  0  0
   12.0918   -3.6116   21.9901 Cl  0  0  0  0  0  0  0  0  0  0  0  0
   17.1233   -9.4121   13.6235 O   0  0  0  0  0  0  0  0  0  0  0  0
   18.1802   -9.9322   12.8278 C   0  0  0  0  0  0  0  0  0  0  0  0
   17.3468   -9.1637    8.7635 N   0  0  0  0  0  0  0  0  0  0  0  0
   17.2488   -8.8230    7.4507 C   0  0  0  0  0  0  0  0  0  0  0  0
   18.3726   -8.1447    6.9843 C   0  0  0  0  0  0  0  0  0  0  0  0
   19.5040   -7.9678    8.2299 S   0  0  0  0  0  0  0  0  0  0  0  0
   18.5128   -8.7680    9.3219 C   0  0  0  0  0  0  0  0  0  0  0  0
   18.7984   -9.0133   10.6241 N   0  0  0  0  0  0  0  0  0  0  0  0
   17.8920   -9.6816   11.3911 C   0  0  0  0  0  0  0  0  0  0  0  0
   16.6692  -10.0978   10.8420 C   0  0  0  0  0  0  0  0  0  0  0  0
   16.4094   -9.8266    9.4943 C   0  0  0  0  0  0  0  0  0  0  0  0
   15.3209  -10.1926    8.9751 O   0  0  0  0  0  0  0  0  0  0  0  0
   18.5527   -7.6476    5.5957 C   0  0  0  0  0  0  0  0  0  0  0  0
 20 21  1  0  0  0
 21 22  2  0  0  0
 22 23  1  0  0  0
 23 24  1  0  0  0
 24 25  2  0  0  0
 25 26  1  0  0  0
 26 19  1  0  0  0
 19 18  1  0  0  0
 18  1  1  0  0  0
  1  2  2  0  0  0
  2  3  1  0  0  0
  3  4  2  0  0  0
  4  5  1  0  0  0
  5  6  2  0  0  0
  5  7  1  0  0  0
  7  8  1  0  0  0
  8  9  2  0  0  0
  8 11  1  0  0  0
 11 12  2  0  0  0
 12 13  1  0  0  0
 13 14  2  0  0  0
 14 15  1  0  0  0
 15 16  2  0  0  0
 14 17  1  0  0  0
 26 27  2  0  0  0
 27 28  1  0  0  0
 28 29  2  0  0  0
 22 30  1  0  0  0
 24 20  1  0  0  0
  6  1  1  0  0  0
 16 11  1  0  0  0
 28 20  1  0  0  0
  7 10  1  0  0  0
M  END
>  <minimizedAffinity>
-7.16351

>  <minimizedRMSD>
1.09117

$$$$
ChemDiv-C679-6511 MCULE-9479686097 MolPort-007-656-260 PubChem-20874398 ZINC000013368537


 29 31  0  0  0  0  0  0  0  0999 V2000
   17.1174   -9.3073   13.1083 O   0  0  0  0  0  0  0  0  0  0  0  0
   17.2022   -9.7253   14.4387 C   0  0  0  0  0  0  0  0  0  0  0  0
   17.7745  -10.9584   14.7888 C   0  0  0  0  0  0  0  0  0  0  0  0
   17.8438  -11.3459   16.1292 C   0  0  0  0  0  0  0  0  0  0  0  0
   17.3426  -10.5049   17.1262 C   0  0  0  0  0  0  0  0  0  0  0  0
   16.7696   -9.2735   16.7920 C   0  0  0  0  0  0  0  0  0  0  0  0
   16.7032   -8.8905   15.4436 C   0  0  0  0  0  0  0  0  0  0  0  0
   16.2680   -8.4378   17.8439 N   0  0  0  0  0  0  0  0  0  0  0  0
   14.9869   -7.7962   17.8919 C   0  0  0  0  0  0  0  0  0  0  0  0
   14.1553   -7.9250   16.9547 O   0  0  0  0  0  0  0  0  0  0  0  0
   16.8651   -8.2894   18.6125 H   0  0  0  0  0  0  0  0  0  0  0  0
   14.6426   -6.9390   19.0619 C   0  0  0  0  0  0  0  0  0  0  0  0
   14.4415   -7.7829   20.3102 C   0  0  0  0  0  0  0  0  0  0  0  0
   12.9749   -7.7787   20.6851 C   0  0  0  0  0  0  0  0  0  0  0  0
   15.2502   -7.2198   21.4640 C   0  0  0  0  0  0  0  0  0  0  0  0
   16.2586   -9.9291   12.1615 C   0  0  0  0  0  0  0  0  0  0  0  0
   17.6299   -9.1106    8.2592 N   0  0  0  0  0  0  0  0  0  0  0  0
   18.1566   -8.7401    7.0946 N   0  0  0  0  0  0  0  0  0  0  0  0
   19.1329   -7.8132    7.2505 C   0  0  0  0  0  0  0  0  0  0  0  0
   19.3708   -7.4036    8.8805 S   0  0  0  0  0  0  0  0  0  0  0  0
   18.1694   -8.4884    9.3286 C   0  0  0  0  0  0  0  0  0  0  0  0
   17.7456   -8.7435   10.5905 N   0  0  0  0  0  0  0  0  0  0  0  0
   16.7538   -9.6579   10.7863 C   0  0  0  0  0  0  0  0  0  0  0  0
   16.1678  -10.3148    9.6916 C   0  0  0  0  0  0  0  0  0  0  0  0
   16.6327  -10.0226    8.4046 C   0  0  0  0  0  0  0  0  0  0  0  0
   16.1303  -10.5970    7.4024 O   0  0  0  0  0  0  0  0  0  0  0  0
   19.8705   -7.1997    6.1093 C   0  0  0  0  0  0  0  0  0  0  0  0
   20.0415   -8.1977    4.9754 C   0  0  0  0  0  0  0  0  0  0  0  0
   19.0782   -7.8900    3.8442 C   0  0  0  0  0  0  0  0  0  0  0  0
 17 18  1  0  0  0
 18 19  2  0  0  0
 19 20  1  0  0  0
 20 21  1  0  0  0
 21 22  2  0  0  0
 22 23  1  0  0  0
 23 16  1  0  0  0
 16  1  1  0  0  0
  1  2  1  0  0  0
  2  3  2  0  0  0
  3  4  1  0  0  0
  4  5  2  0  0  0
  5  6  1  0  0  0
  6  7  2  0  0  0
  6  8  1  0  0  0
  8  9  1  0  0  0
  9 12  1  0  0  0
 12 13  1  0  0  0
 13 14  1  0  0  0
 13 15  1  0  0  0
  9 10  2  0  0  0
 23 24  2  0  0  0
 24 25  1  0  0  0
 25 26  2  0  0  0
 19 27  1  0  0  0
 27 28  1  0  0  0
 28 29  1  0  0  0
 21 17  1  0  0  0
  7  2  1  0  0  0
 25 17  1  0  0  0
  8 11  1  0  0  0
M  END
>  <minimizedAffinity>
-7.16140

>  <minimizedRMSD>
1.78451

$$$$
ChemDiv-C679-5575 MCULE-5417442727 MolPort-010-797-262 PubChem-53043765


 33 36  0  0  0  0  0  0  0  0999 V2000
   16.6612  -10.0627   16.5354 C   0  0  0  0  0  0  0  0  0  0  0  0
   16.6097   -9.5921   15.2143 C   0  0  0  0  0  0  0  0  0  0  0  0
   17.4106  -10.1640   14.2207 C   0  0  0  0  0  0  0  0  0  0  0  0
   18.2736  -11.2196   14.5547 C   0  0  0  0  0  0  0  0  0  0  0  0
   18.3303  -11.6925   15.8679 C   0  0  0  0  0  0  0  0  0  0  0  0
   17.5262  -11.1146   16.8538 C   0  0  0  0  0  0  0  0  0  0  0  0
   15.2174   -8.2108   17.5634 C   0  0  0  0  0  0  0  0  0  0  0  0
   15.3130   -7.4458   16.5657 O   0  0  0  0  0  0  0  0  0  0  0  0
   15.8533   -9.4952   17.5754 N   0  0  0  0  0  0  0  0  0  0  0  0
   15.7219  -10.0449   18.3815 H   0  0  0  0  0  0  0  0  0  0  0  0
   14.4172   -7.7916   18.7543 C   0  0  0  0  0  0  0  0  0  0  0  0
   15.9819   -6.7682   20.4669 C   0  0  0  0  0  0  0  0  0  0  0  0
   15.1844   -7.9985   20.0628 C   0  0  0  0  0  0  0  0  0  0  0  0
   13.9780   -6.4423   18.6094 O   0  0  0  0  0  0  0  0  0  0  0  0
   12.7611   -5.9718   19.1147 C   0  0  0  0  0  0  0  0  0  0  0  0
   12.7662   -4.8639   19.9692 C   0  0  0  0  0  0  0  0  0  0  0  0
   11.5667   -4.3673   20.4886 C   0  0  0  0  0  0  0  0  0  0  0  0
   10.3541   -4.9768   20.1544 C   0  0  0  0  0  0  0  0  0  0  0  0
   10.3402   -6.0829   19.3003 C   0  0  0  0  0  0  0  0  0  0  0  0
   11.5392   -6.5794   18.7808 C   0  0  0  0  0  0  0  0  0  0  0  0
   17.3299   -9.6667   12.9177 O   0  0  0  0  0  0  0  0  0  0  0  0
   18.4580   -9.1553   12.2200 C   0  0  0  0  0  0  0  0  0  0  0  0
   18.1920   -9.1779   10.7575 C   0  0  0  0  0  0  0  0  0  0  0  0
   17.0713   -9.8631   10.2630 C   0  0  0  0  0  0  0  0  0  0  0  0
   16.8273   -9.8486    8.8855 C   0  0  0  0  0  0  0  0  0  0  0  0
   15.8305  -10.4590    8.4144 O   0  0  0  0  0  0  0  0  0  0  0  0
   17.6799   -9.1665    8.0730 N   0  0  0  0  0  0  0  0  0  0  0  0
   17.5835   -9.0531    6.7212 C   0  0  0  0  0  0  0  0  0  0  0  0
   18.6068   -8.2853    6.1701 C   0  0  0  0  0  0  0  0  0  0  0  0
   18.7639   -7.9872    4.7229 C   0  0  0  0  0  0  0  0  0  0  0  0
   19.6459   -7.7398    7.3890 S   0  0  0  0  0  0  0  0  0  0  0  0
   18.7470   -8.5087    8.5791 C   0  0  0  0  0  0  0  0  0  0  0  0
   19.0142   -8.5008    9.9080 N   0  0  0  0  0  0  0  0  0  0  0  0
 12 13  1  0  0  0
 11 13  1  0  0  0
 11 14  1  0  0  0
 11  7  1  0  0  0
 14 15  1  0  0  0
 15 16  2  0  0  0
 16 17  1  0  0  0
 17 18  2  0  0  0
 18 19  1  0  0  0
 19 20  2  0  0  0
 20 15  1  0  0  0
  7  8  2  0  0  0
  7  9  1  0  0  0
  9  1  1  0  0  0
  1  2  2  0  0  0
  2  3  1  0  0  0
  3 21  1  0  0  0
  3  4  2  0  0  0
 21 22  1  0  0  0
 22 23  1  0  0  0
 23 24  2  0  0  0
 24 25  1  0  0  0
 25 26  2  0  0  0
 25 27  1  0  0  0
 27 28  1  0  0  0
 28 29  2  0  0  0
 29 30  1  0  0  0
 29 31  1  0  0  0
 31 32  1  0  0  0
 32 33  2  0  0  0
 32 27  1  0  0  0
 33 23  1  0  0  0
  4  5  1  0  0  0
  5  6  2  0  0  0
  6  1  1  0  0  0
  9 10  1  0  0  0
M  END
>  <minimizedAffinity>
-7.15070

>  <minimizedRMSD>
1.44707

$$$$
ChemDiv-D549-0029 MCULE-3961411793 MolPort-009-676-617 PubChem-52991760 ZINC000064370044 ZINC64370044


 33 36  0  0  0  0  0  0  0  0999 V2000
   16.6990  -10.1960   14.1011 C   0  0  0  0  0  0  0  0  0  0  0  0
   15.4319   -9.9313   13.7328 N   0  0  0  0  0  0  0  0  0  0  0  0
   15.4648   -9.6157   12.4456 N   0  0  0  0  0  0  0  0  0  0  0  0
   16.7524   -9.6836   12.0518 C   0  0  0  0  0  0  0  0  0  0  0  0
   17.5524  -10.0522   13.0729 N   0  0  0  0  0  0  0  0  0  0  0  0
   18.9629  -10.4073   13.0482 C   0  0  0  0  0  0  0  0  0  0  0  0
   17.1783   -9.4445   10.6615 C   0  0  0  0  0  0  0  0  0  0  0  0
   18.2556   -8.6601   10.2251 C   0  0  0  0  0  0  0  0  0  0  0  0
   19.0957   -7.9056   11.0943 N   0  0  0  0  0  0  0  0  0  0  0  0
   18.3526   -8.5968    8.8319 C   0  0  0  0  0  0  0  0  0  0  0  0
   19.2948   -7.8943    8.0812 C   0  0  0  0  0  0  0  0  0  0  0  0
   19.2054   -7.9508    6.6814 C   0  0  0  0  0  0  0  0  0  0  0  0
   18.1781   -8.6992    6.0742 C   0  0  0  0  0  0  0  0  0  0  0  0
   17.2665   -9.3701    6.8367 N   0  0  0  0  0  0  0  0  0  0  0  0
   17.3623   -9.3145    8.1882 C   0  0  0  0  0  0  0  0  0  0  0  0
   16.3401  -10.0311    9.3079 S   0  0  0  0  0  0  0  0  0  0  0  0
   18.9904   -7.9828   12.0701 H   0  0  0  0  0  0  0  0  0  0  0  0
   19.7814   -7.3071   10.7191 H   0  0  0  0  0  0  0  0  0  0  0  0
   17.1635  -10.7259   15.7496 S   0  0  0  0  0  0  0  0  0  0  0  0
   17.5967   -9.0405   16.2811 C   0  0  0  0  0  0  0  0  0  0  0  0
   15.9816   -8.3340   18.0864 N   0  0  0  0  0  0  0  0  0  0  0  0
   16.3769   -8.3016   16.7088 C   0  0  0  0  0  0  0  0  0  0  0  0
   15.7037   -7.6738   15.8493 O   0  0  0  0  0  0  0  0  0  0  0  0
   16.5672   -8.8327   18.7009 H   0  0  0  0  0  0  0  0  0  0  0  0
   14.9205   -7.1321   19.9390 C   0  0  0  0  0  0  0  0  0  0  0  0
   14.8216   -7.7159   18.6643 C   0  0  0  0  0  0  0  0  0  0  0  0
   13.5930   -7.6866   17.9860 C   0  0  0  0  0  0  0  0  0  0  0  0
   12.4751   -7.0834   18.5654 C   0  0  0  0  0  0  0  0  0  0  0  0
   11.1813   -7.0599   17.8351 C   0  0  0  0  0  0  0  0  0  0  0  0
   12.5737   -6.5030   19.8305 C   0  0  0  0  0  0  0  0  0  0  0  0
   13.7905   -6.5269   20.5149 C   0  0  0  0  0  0  0  0  0  0  0  0
   16.3298   -6.5947   21.9035 C   0  0  0  0  0  0  0  0  0  0  0  0
   16.1460   -7.1639   20.6143 O   0  0  0  0  0  0  0  0  0  0  0  0
 32 33  1  0  0  0
 33 25  1  0  0  0
 25 26  2  0  0  0
 26 21  1  0  0  0
 26 27  1  0  0  0
 21 22  1  0  0  0
 22 23  2  0  0  0
 22 20  1  0  0  0
 20 19  1  0  0  0
 19  1  1  0  0  0
  1  2  2  0  0  0
  2  3  1  0  0  0
  3  4  2  0  0  0
  4  5  1  0  0  0
  4  7  1  0  0  0
  5  6  1  0  0  0
  5  1  1  0  0  0
  7  8  2  0  0  0
  8  9  1  0  0  0
  8 10  1  0  0  0
 10 11  2  0  0  0
 11 12  1  0  0  0
 12 13  2  0  0  0
 13 14  1  0  0  0
 14 15  2  0  0  0
 15 16  1  0  0  0
 15 10  1  0  0  0
 16  7  1  0  0  0
 27 28  2  0  0  0
 28 29  1  0  0  0
 28 30  1  0  0  0
 30 31  2  0  0  0
 31 25  1  0  0  0
 21 24  1  0  0  0
  9 17  1  0  0  0
  9 18  1  0  0  0
M  END
>  <minimizedAffinity>
-7.14754

>  <minimizedRMSD>
1.04547

$$$$
ChemDiv-C679-5561 MCULE-5737001193 MolPort-010-797-251 PubChem-53043759 ZINC000064775683


 30 33  0  0  0  0  0  0  0  0999 V2000
   17.3304   -9.9167   15.1363 C   0  0  0  0  0  0  0  0  0  0  0  0
   18.0078  -11.0145   15.6898 C   0  0  0  0  0  0  0  0  0  0  0  0
   17.9537  -11.2534   17.0650 C   0  0  0  0  0  0  0  0  0  0  0  0
   17.2235  -10.3979   17.8943 C   0  0  0  0  0  0  0  0  0  0  0  0
   16.5437   -9.3001   17.3567 C   0  0  0  0  0  0  0  0  0  0  0  0
   16.6023   -9.0662   15.9745 C   0  0  0  0  0  0  0  0  0  0  0  0
   15.8054   -8.4463   18.2413 N   0  0  0  0  0  0  0  0  0  0  0  0
   14.6320   -7.6816   17.9250 C   0  0  0  0  0  0  0  0  0  0  0  0
   14.1460   -7.7175   16.7614 O   0  0  0  0  0  0  0  0  0  0  0  0
   16.1390   -8.3769   19.1650 H   0  0  0  0  0  0  0  0  0  0  0  0
   13.9800   -6.8437   18.9587 C   0  0  0  0  0  0  0  0  0  0  0  0
   14.3925   -6.8525   20.3097 C   0  0  0  0  0  0  0  0  0  0  0  0
   15.4155   -7.6348   20.7347 F   0  0  0  0  0  0  0  0  0  0  0  0
   13.7429   -6.0422   21.2467 C   0  0  0  0  0  0  0  0  0  0  0  0
   12.6845   -5.2200   20.8565 C   0  0  0  0  0  0  0  0  0  0  0  0
   12.2696   -5.2040   19.5245 C   0  0  0  0  0  0  0  0  0  0  0  0
   12.9135   -6.0105   18.5834 C   0  0  0  0  0  0  0  0  0  0  0  0
   17.3637   -9.6492   13.7655 O   0  0  0  0  0  0  0  0  0  0  0  0
   18.0069  -10.5062   12.8315 C   0  0  0  0  0  0  0  0  0  0  0  0
   18.8535   -6.9285    6.1872 C   0  0  0  0  0  0  0  0  0  0  0  0
   18.5812   -7.6691    7.4463 C   0  0  0  0  0  0  0  0  0  0  0  0
   17.4145   -8.3798    7.7189 C   0  0  0  0  0  0  0  0  0  0  0  0
   17.4282   -8.9629    8.9473 N   0  0  0  0  0  0  0  0  0  0  0  0
   18.5706   -8.7221    9.6289 C   0  0  0  0  0  0  0  0  0  0  0  0
   19.6440   -7.7699    8.7590 S   0  0  0  0  0  0  0  0  0  0  0  0
   18.7747   -9.2163   10.8746 N   0  0  0  0  0  0  0  0  0  0  0  0
   17.8081   -9.9814   11.4548 C   0  0  0  0  0  0  0  0  0  0  0  0
   16.6077  -10.2418   10.7757 C   0  0  0  0  0  0  0  0  0  0  0  0
   16.4327   -9.7145    9.4917 C   0  0  0  0  0  0  0  0  0  0  0  0
   15.3660   -9.9361    8.8582 O   0  0  0  0  0  0  0  0  0  0  0  0
 20 21  1  0  0  0
 21 22  2  0  0  0
 22 23  1  0  0  0
 23 24  1  0  0  0
 24 25  1  0  0  0
 24 26  2  0  0  0
 26 27  1  0  0  0
 27 19  1  0  0  0
 19 18  1  0  0  0
 18  1  1  0  0  0
  1  2  2  0  0  0
  2  3  1  0  0  0
  3  4  2  0  0  0
  4  5  1  0  0  0
  5  7  1  0  0  0
  7  8  1  0  0  0
  8  9  2  0  0  0
  8 11  1  0  0  0
 11 12  2  0  0  0
 12 13  1  0  0  0
 12 14  1  0  0  0
 14 15  2  0  0  0
 15 16  1  0  0  0
 16 17  2  0  0  0
  5  6  2  0  0  0
 27 28  2  0  0  0
 28 29  1  0  0  0
 29 30  2  0  0  0
 25 21  1  0  0  0
  6  1  1  0  0  0
 29 23  1  0  0  0
 17 11  1  0  0  0
  7 10  1  0  0  0
M  END
>  <minimizedAffinity>
-7.14636

>  <minimizedRMSD>
0.88317

$$$$
ChemDiv-C679-6520 MCULE-1695595807 MolPort-007-656-267 PubChem-20874401 ZINC000013368549


 33 36  0  0  0  0  0  0  0  0999 V2000
   17.3963  -10.0540   15.0637 C   0  0  0  0  0  0  0  0  0  0  0  0
   17.9567  -11.2399   15.5645 C   0  0  0  0  0  0  0  0  0  0  0  0
   17.9136  -11.5141   16.9347 C   0  0  0  0  0  0  0  0  0  0  0  0
   17.3131  -10.6060   17.8110 C   0  0  0  0  0  0  0  0  0  0  0  0
   16.7504   -9.4206   17.3257 C   0  0  0  0  0  0  0  0  0  0  0  0
   16.7945   -9.1525   15.9485 C   0  0  0  0  0  0  0  0  0  0  0  0
   16.1443   -8.5137   18.2565 N   0  0  0  0  0  0  0  0  0  0  0  0
   15.0407   -7.6338   18.0022 C   0  0  0  0  0  0  0  0  0  0  0  0
   14.4932   -7.5830   16.8687 O   0  0  0  0  0  0  0  0  0  0  0  0
   16.5251   -8.4929   19.1641 H   0  0  0  0  0  0  0  0  0  0  0  0
   14.5491   -6.7357   19.0875 C   0  0  0  0  0  0  0  0  0  0  0  0
   13.4630   -7.3401   19.7864 O   0  0  0  0  0  0  0  0  0  0  0  0
   12.2819   -7.7558   19.1616 C   0  0  0  0  0  0  0  0  0  0  0  0
   11.6084   -6.9397   18.2360 C   0  0  0  0  0  0  0  0  0  0  0  0
   10.4312   -7.3864   17.6281 C   0  0  0  0  0  0  0  0  0  0  0  0
    9.9193   -8.6497   17.9410 C   0  0  0  0  0  0  0  0  0  0  0  0
   10.5838   -9.4651   18.8625 C   0  0  0  0  0  0  0  0  0  0  0  0
   11.7613   -9.0178   19.4710 C   0  0  0  0  0  0  0  0  0  0  0  0
   17.4268   -9.7466   13.6999 O   0  0  0  0  0  0  0  0  0  0  0  0
   18.0121  -10.6066   12.7306 C   0  0  0  0  0  0  0  0  0  0  0  0
   17.4964   -8.9160    8.9019 N   0  0  0  0  0  0  0  0  0  0  0  0
   17.4809   -8.3197    7.7117 N   0  0  0  0  0  0  0  0  0  0  0  0
   18.6261   -7.6349    7.4715 C   0  0  0  0  0  0  0  0  0  0  0  0
   19.7168   -7.7374    8.7684 S   0  0  0  0  0  0  0  0  0  0  0  0
   18.6300   -8.7083    9.6050 C   0  0  0  0  0  0  0  0  0  0  0  0
   18.8143   -9.2467   10.8352 N   0  0  0  0  0  0  0  0  0  0  0  0
   17.8332  -10.0253   11.3739 C   0  0  0  0  0  0  0  0  0  0  0  0
   16.6381  -10.2501   10.6701 C   0  0  0  0  0  0  0  0  0  0  0  0
   16.4849   -9.6739    9.4039 C   0  0  0  0  0  0  0  0  0  0  0  0
   15.4261   -9.8588    8.7457 O   0  0  0  0  0  0  0  0  0  0  0  0
   18.8657   -6.8492    6.2306 C   0  0  0  0  0  0  0  0  0  0  0  0
   19.9908   -7.4764    5.4316 C   0  0  0  0  0  0  0  0  0  0  0  0
   19.4094   -8.4128    4.3924 C   0  0  0  0  0  0  0  0  0  0  0  0
 21 22  1  0  0  0
 22 23  2  0  0  0
 23 24  1  0  0  0
 24 25  1  0  0  0
 25 26  2  0  0  0
 26 27  1  0  0  0
 27 20  1  0  0  0
 20 19  1  0  0  0
 19  1  1  0  0  0
  1  2  2  0  0  0
  2  3  1  0  0  0
  3  4  2  0  0  0
  4  5  1  0  0  0
  5  6  2  0  0  0
  5  7  1  0  0  0
  7  8  1  0  0  0
  8 11  1  0  0  0
 11 12  1  0  0  0
 12 13  1  0  0  0
 13 14  2  0  0  0
 14 15  1  0  0  0
 15 16  2  0  0  0
 16 17  1  0  0  0
 17 18  2  0  0  0
  8  9  2  0  0  0
 27 28  2  0  0  0
 28 29  1  0  0  0
 29 30  2  0  0  0
 23 31  1  0  0  0
 31 32  1  0  0  0
 32 33  1  0  0  0
 25 21  1  0  0  0
  6  1  1  0  0  0
 18 13  1  0  0  0
 29 21  1  0  0  0
  7 10  1  0  0  0
M  END
>  <minimizedAffinity>
-7.12626

>  <minimizedRMSD>
1.16156

$$$$
ChemDiv-C679-4211 MCULE-1318149188 MolPort-007-655-820 PubChem-20874234


 34 37  0  0  0  0  0  0  0  0999 V2000
   17.4288  -10.2792   14.4757 C   0  0  0  0  0  0  0  0  0  0  0  0
   17.9497  -11.5405   14.8048 C   0  0  0  0  0  0  0  0  0  0  0  0
   17.9167  -11.9916   16.1269 C   0  0  0  0  0  0  0  0  0  0  0  0
   17.3634  -11.1867   17.1262 C   0  0  0  0  0  0  0  0  0  0  0  0
   16.8376   -9.9293   16.8118 C   0  0  0  0  0  0  0  0  0  0  0  0
   16.8760   -9.4812   15.4822 C   0  0  0  0  0  0  0  0  0  0  0  0
   16.2816   -9.1310   17.8650 N   0  0  0  0  0  0  0  0  0  0  0  0
   15.3992   -8.0093   17.7164 C   0  0  0  0  0  0  0  0  0  0  0  0
   15.0104   -7.6328   16.5795 O   0  0  0  0  0  0  0  0  0  0  0  0
   16.5309   -9.3779   18.7849 H   0  0  0  0  0  0  0  0  0  0  0  0
   14.9331   -7.2658   18.9258 C   0  0  0  0  0  0  0  0  0  0  0  0
   16.0541   -7.1976   19.9434 C   0  0  0  0  0  0  0  0  0  0  0  0
   13.8038   -7.9100   19.5091 O   0  0  0  0  0  0  0  0  0  0  0  0
   12.5314   -7.9162   18.9262 C   0  0  0  0  0  0  0  0  0  0  0  0
   11.6919   -9.0130   19.1482 C   0  0  0  0  0  0  0  0  0  0  0  0
   10.4146   -9.0516   18.5809 C   0  0  0  0  0  0  0  0  0  0  0  0
    9.9697   -7.9906   17.7875 C   0  0  0  0  0  0  0  0  0  0  0  0
   10.8015   -6.8903   17.5622 C   0  0  0  0  0  0  0  0  0  0  0  0
   12.0783   -6.8514   18.1299 C   0  0  0  0  0  0  0  0  0  0  0  0
   17.4510   -9.7951   13.1653 O   0  0  0  0  0  0  0  0  0  0  0  0
   18.6576   -9.5941   12.4410 C   0  0  0  0  0  0  0  0  0  0  0  0
   17.7614   -8.9105    8.3778 N   0  0  0  0  0  0  0  0  0  0  0  0
   16.8516   -9.5921    9.1229 C   0  0  0  0  0  0  0  0  0  0  0  0
   15.7724   -9.9966    8.6147 O   0  0  0  0  0  0  0  0  0  0  0  0
   17.1312   -9.8369   10.4720 C   0  0  0  0  0  0  0  0  0  0  0  0
   18.3460   -9.3732   11.0043 C   0  0  0  0  0  0  0  0  0  0  0  0
   19.2244   -8.6874   10.2196 N   0  0  0  0  0  0  0  0  0  0  0  0
   18.9173   -8.4708    8.9175 C   0  0  0  0  0  0  0  0  0  0  0  0
   19.8649   -7.6615    7.7921 S   0  0  0  0  0  0  0  0  0  0  0  0
   18.6801   -7.9294    6.5992 C   0  0  0  0  0  0  0  0  0  0  0  0
   17.6181   -8.6146    7.0881 N   0  0  0  0  0  0  0  0  0  0  0  0
   18.7684   -7.4824    5.1777 C   0  0  0  0  0  0  0  0  0  0  0  0
   20.0761   -6.7589    4.9251 C   0  0  0  0  0  0  0  0  0  0  0  0
   18.6415   -8.6661    4.2381 C   0  0  0  0  0  0  0  0  0  0  0  0
 22 23  1  0  0  0
 23 24  2  0  0  0
 23 25  1  0  0  0
 25 26  2  0  0  0
 26 27  1  0  0  0
 27 28  2  0  0  0
 28 29  1  0  0  0
 29 30  1  0  0  0
 30 32  1  0  0  0
 32 33  1  0  0  0
 32 34  1  0  0  0
 30 31  2  0  0  0
 26 21  1  0  0  0
 21 20  1  0  0  0
 20  1  1  0  0  0
  1  2  2  0  0  0
  2  3  1  0  0  0
  3  4  2  0  0  0
  4  5  1  0  0  0
  5  6  2  0  0  0
  5  7  1  0  0  0
  7  8  1  0  0  0
  8  9  2  0  0  0
  8 11  1  0  0  0
 11 12  1  0  0  0
 11 13  1  0  0  0
 13 14  1  0  0  0
 14 15  2  0  0  0
 15 16  1  0  0  0
 16 17  2  0  0  0
 17 18  1  0  0  0
 18 19  2  0  0  0
 28 22  1  0  0  0
  6  1  1  0  0  0
 19 14  1  0  0  0
 31 22  1  0  0  0
  7 10  1  0  0  0
M  END
>  <minimizedAffinity>
-7.11468

>  <minimizedRMSD>
0.98160

$$$$
ChemDiv-C679-6514 MCULE-3103395825 MolPort-007-656-261 PubChem-20874399 ZINC000013368540


 31 34  0  0  0  0  0  0  0  0999 V2000
   17.2984   -9.8078   15.1049 C   0  0  0  0  0  0  0  0  0  0  0  0
   17.9499  -10.9078   15.6845 C   0  0  0  0  0  0  0  0  0  0  0  0
   17.8573  -11.1351   17.0596 C   0  0  0  0  0  0  0  0  0  0  0  0
   17.1143  -10.2662   17.8627 C   0  0  0  0  0  0  0  0  0  0  0  0
   16.4596   -9.1663   17.2989 C   0  0  0  0  0  0  0  0  0  0  0  0
   16.5571   -8.9438   15.9168 C   0  0  0  0  0  0  0  0  0  0  0  0
   15.7039   -8.2997   18.1560 N   0  0  0  0  0  0  0  0  0  0  0  0
   14.4612   -7.6569   17.8458 C   0  0  0  0  0  0  0  0  0  0  0  0
   13.9076   -7.8194   16.7244 O   0  0  0  0  0  0  0  0  0  0  0  0
   16.0777   -8.1286   19.0505 H   0  0  0  0  0  0  0  0  0  0  0  0
   13.8209   -6.7883   18.8852 C   0  0  0  0  0  0  0  0  0  0  0  0
   13.3341   -7.5881   20.0995 C   0  0  0  0  0  0  0  0  0  0  0  0
   12.0401   -8.3432   19.7980 C   0  0  0  0  0  0  0  0  0  0  0  0
   10.9658   -7.3768   19.3124 C   0  0  0  0  0  0  0  0  0  0  0  0
   11.4328   -6.6764   18.0412 C   0  0  0  0  0  0  0  0  0  0  0  0
   12.7176   -5.8928   18.3088 C   0  0  0  0  0  0  0  0  0  0  0  0
   17.3710   -9.5514   13.7334 O   0  0  0  0  0  0  0  0  0  0  0  0
   17.9725  -10.4538   12.8145 C   0  0  0  0  0  0  0  0  0  0  0  0
   17.4784   -8.9485    8.9072 N   0  0  0  0  0  0  0  0  0  0  0  0
   17.4660   -8.4038    7.6931 N   0  0  0  0  0  0  0  0  0  0  0  0
   18.5956   -7.6995    7.4404 C   0  0  0  0  0  0  0  0  0  0  0  0
   19.6813   -7.7439    8.7450 S   0  0  0  0  0  0  0  0  0  0  0  0
   18.6003   -8.6927    9.6125 C   0  0  0  0  0  0  0  0  0  0  0  0
   18.7798   -9.1746   10.8665 N   0  0  0  0  0  0  0  0  0  0  0  0
   17.8035   -9.9414   11.4293 C   0  0  0  0  0  0  0  0  0  0  0  0
   16.6204  -10.2154   10.7230 C   0  0  0  0  0  0  0  0  0  0  0  0
   16.4743   -9.7005    9.4303 C   0  0  0  0  0  0  0  0  0  0  0  0
   15.4273   -9.9313    8.7691 O   0  0  0  0  0  0  0  0  0  0  0  0
   18.8628   -7.0207    6.1399 C   0  0  0  0  0  0  0  0  0  0  0  0
   19.6756   -7.9152    5.2177 C   0  0  0  0  0  0  0  0  0  0  0  0
   18.8881   -8.2479    3.9643 C   0  0  0  0  0  0  0  0  0  0  0  0
 19 20  1  0  0  0
 20 21  2  0  0  0
 21 22  1  0  0  0
 22 23  1  0  0  0
 23 24  2  0  0  0
 24 25  1  0  0  0
 25 18  1  0  0  0
 18 17  1  0  0  0
 17  1  1  0  0  0
  1  2  2  0  0  0
  2  3  1  0  0  0
  3  4  2  0  0  0
  4  5  1  0  0  0
  5  6  2  0  0  0
  5  7  1  0  0  0
  7  8  1  0  0  0
  8 11  1  0  0  0
 11 12  1  0  0  0
 12 13  1  0  0  0
 13 14  1  0  0  0
 14 15  1  0  0  0
 15 16  1  0  0  0
  8  9  2  0  0  0
 25 26  2  0  0  0
 26 27  1  0  0  0
 27 28  2  0  0  0
 21 29  1  0  0  0
 29 30  1  0  0  0
 30 31  1  0  0  0
 23 19  1  0  0  0
  6  1  1  0  0  0
 16 11  1  0  0  0
 27 19  1  0  0  0
  7 10  1  0  0  0
M  END
>  <minimizedAffinity>
-7.10585

>  <minimizedRMSD>
1.64390

$$$$
ChemDiv-G756-0810 MCULE-9905555575 MolPort-010-744-682 PubChem-50802602 ZINC000033268601 ZINC33268601


 32 35  0  0  0  0  0  0  0  0999 V2000
   18.5096  -12.3052   14.7107 C   0  0  0  0  0  0  0  0  0  0  0  0
   17.8077  -11.3029   15.5609 C   0  0  0  0  0  0  0  0  0  0  0  0
   17.6954  -11.5958   16.9236 C   0  0  0  0  0  0  0  0  0  0  0  0
   17.0471  -10.7152   17.7899 C   0  0  0  0  0  0  0  0  0  0  0  0
   16.4975   -9.5277   17.3064 C   0  0  0  0  0  0  0  0  0  0  0  0
   16.6072   -9.2291   15.9421 C   0  0  0  0  0  0  0  0  0  0  0  0
   17.2558  -10.0960   15.0551 C   0  0  0  0  0  0  0  0  0  0  0  0
   15.8396   -8.6464   18.2268 N   0  0  0  0  0  0  0  0  0  0  0  0
   14.7333   -7.7753   17.9443 C   0  0  0  0  0  0  0  0  0  0  0  0
   14.2214   -7.7411   16.7923 O   0  0  0  0  0  0  0  0  0  0  0  0
   16.1825   -8.6376   19.1496 H   0  0  0  0  0  0  0  0  0  0  0  0
   14.1891   -6.9164   19.0109 C   0  0  0  0  0  0  0  0  0  0  0  0
   13.0894   -6.0823   18.7596 C   0  0  0  0  0  0  0  0  0  0  0  0
   12.5739   -5.2676   19.7719 C   0  0  0  0  0  0  0  0  0  0  0  0
   13.1538   -5.2819   21.0429 C   0  0  0  0  0  0  0  0  0  0  0  0
   12.4518   -4.1710   22.4224 Br  0  0  0  0  0  0  0  0  0  0  0  0
   14.2487   -6.1104   21.3023 C   0  0  0  0  0  0  0  0  0  0  0  0
   14.7647   -6.9244   20.2899 C   0  0  0  0  0  0  0  0  0  0  0  0
   17.3092   -9.6949   13.7103 O   0  0  0  0  0  0  0  0  0  0  0  0
   18.2752  -10.1209   12.7600 C   0  0  0  0  0  0  0  0  0  0  0  0
   17.8092   -9.7834   11.3895 C   0  0  0  0  0  0  0  0  0  0  0  0
   16.5337  -10.1535   10.9778 C   0  0  0  0  0  0  0  0  0  0  0  0
   16.1129   -9.8020    9.6967 C   0  0  0  0  0  0  0  0  0  0  0  0
   14.9573  -10.1415    9.3204 O   0  0  0  0  0  0  0  0  0  0  0  0
   16.9457   -9.0990    8.8671 N   0  0  0  0  0  0  0  0  0  0  0  0
   16.5254   -8.7575    7.6126 C   0  0  0  0  0  0  0  0  0  0  0  0
   17.3540   -8.0405    6.7497 C   0  0  0  0  0  0  0  0  0  0  0  0
   18.6260   -7.6690    7.1770 C   0  0  0  0  0  0  0  0  0  0  0  0
   19.0603   -8.0133    8.4557 C   0  0  0  0  0  0  0  0  0  0  0  0
   20.4259   -7.6041    8.8924 C   0  0  0  0  0  0  0  0  0  0  0  0
   18.2029   -8.7369    9.3021 C   0  0  0  0  0  0  0  0  0  0  0  0
   18.6132   -9.0807   10.5535 N   0  0  0  0  0  0  0  0  0  0  0  0
  1  2  1  0  0  0
  2  3  2  0  0  0
  3  4  1  0  0  0
  4  5  2  0  0  0
  5  8  1  0  0  0
  5  6  1  0  0  0
  8  9  1  0  0  0
  9 10  2  0  0  0
  9 12  1  0  0  0
 12 13  2  0  0  0
 13 14  1  0  0  0
 14 15  2  0  0  0
 15 16  1  0  0  0
 15 17  1  0  0  0
 17 18  2  0  0  0
 18 12  1  0  0  0
  6  7  2  0  0  0
  7 19  1  0  0  0
  7  2  1  0  0  0
 19 20  1  0  0  0
 20 21  1  0  0  0
 21 22  2  0  0  0
 22 23  1  0  0  0
 23 24  2  0  0  0
 23 25  1  0  0  0
 25 26  1  0  0  0
 26 27  2  0  0  0
 27 28  1  0  0  0
 28 29  2  0  0  0
 29 30  1  0  0  0
 29 31  1  0  0  0
 31 32  2  0  0  0
 31 25  1  0  0  0
 32 21  1  0  0  0
  8 11  1  0  0  0
M  END
>  <minimizedAffinity>
-7.09748

>  <minimizedRMSD>
1.02502

$$$$
ChemDiv-G357-3003 MCULE-9526371106 MolPort-007-847-890 PubChem-20953165 ZINC000015772162 ZINC15772162


 29 31  0  0  0  0  0  0  0  0999 V2000
   17.6601  -11.2530   14.5378 C   0  0  0  0  0  0  0  0  0  0  0  0
   18.1442  -12.3349   14.9723 O   0  0  0  0  0  0  0  0  0  0  0  0
   15.8721   -8.4521   17.2442 C   0  0  0  0  0  0  0  0  0  0  0  0
   16.6311   -9.5198   17.7339 C   0  0  0  0  0  0  0  0  0  0  0  0
   17.2155  -10.4351   16.8539 C   0  0  0  0  0  0  0  0  0  0  0  0
   17.0471  -10.2928   15.4695 C   0  0  0  0  0  0  0  0  0  0  0  0
   16.2873   -9.2235   14.9779 C   0  0  0  0  0  0  0  0  0  0  0  0
   15.7039   -8.3090   15.8589 C   0  0  0  0  0  0  0  0  0  0  0  0
   13.8948   -7.3395   18.4402 C   0  0  0  0  0  0  0  0  0  0  0  0
   13.0208   -8.0285   17.8509 O   0  0  0  0  0  0  0  0  0  0  0  0
   15.2922   -7.5322   18.1788 N   0  0  0  0  0  0  0  0  0  0  0  0
   15.9182   -6.9746   18.6950 H   0  0  0  0  0  0  0  0  0  0  0  0
   13.4619   -6.3239   19.4442 C   0  0  0  0  0  0  0  0  0  0  0  0
   13.4782   -6.8990   20.8551 C   0  0  0  0  0  0  0  0  0  0  0  0
   13.6690   -4.8724   22.2989 C   0  0  0  0  0  0  0  0  0  0  0  0
   12.7539   -5.9907   21.8372 C   0  0  0  0  0  0  0  0  0  0  0  0
   17.7034  -10.9610   13.1725 O   0  0  0  0  0  0  0  0  0  0  0  0
   18.3355   -9.7910   12.6744 C   0  0  0  0  0  0  0  0  0  0  0  0
   17.9689   -9.5962   11.2468 C   0  0  0  0  0  0  0  0  0  0  0  0
   16.7164  -10.0456   10.7801 C   0  0  0  0  0  0  0  0  0  0  0  0
   16.3851   -9.8278    9.4372 C   0  0  0  0  0  0  0  0  0  0  0  0
   15.2803  -10.2127    8.9722 O   0  0  0  0  0  0  0  0  0  0  0  0
   17.2878   -9.1889    8.6552 N   0  0  0  0  0  0  0  0  0  0  0  0
   17.1974   -8.8811    7.4019 O   0  0  0  0  0  0  0  0  0  0  0  0
   18.3023   -8.2598    7.0383 C   0  0  0  0  0  0  0  0  0  0  0  0
   18.5558   -7.7565    5.6630 C   0  0  0  0  0  0  0  0  0  0  0  0
   19.1896   -8.1415    8.1133 C   0  0  0  0  0  0  0  0  0  0  0  0
   18.4671   -8.7616    9.1148 C   0  0  0  0  0  0  0  0  0  0  0  0
   18.8315   -8.9490   10.4071 N   0  0  0  0  0  0  0  0  0  0  0  0
 15 16  1  0  0  0
 16 14  1  0  0  0
 14 13  1  0  0  0
 13  9  1  0  0  0
  9 10  2  0  0  0
  9 11  1  0  0  0
 11  3  1  0  0  0
  3  4  2  0  0  0
  4  5  1  0  0  0
  5  6  2  0  0  0
  6  7  1  0  0  0
  6  1  1  0  0  0
  7  8  2  0  0  0
  8  3  1  0  0  0
  1  2  2  0  0  0
  1 17  1  0  0  0
 17 18  1  0  0  0
 18 19  1  0  0  0
 19 20  2  0  0  0
 20 21  1  0  0  0
 21 22  2  0  0  0
 21 23  1  0  0  0
 23 24  1  0  0  0
 24 25  1  0  0  0
 25 26  1  0  0  0
 25 27  2  0  0  0
 27 28  1  0  0  0
 28 29  2  0  0  0
 28 23  1  0  0  0
 29 19  1  0  0  0
 11 12  1  0  0  0
M  END
>  <minimizedAffinity>
-7.09583

>  <minimizedRMSD>
1.79584

$$$$
ChemDiv-D439-2881 MCULE-2091149633 MolPort-010-713-983 PubChem-50748708 ZINC000021796866 ZINC21796866


 33 36  0  0  0  0  0  0  0  0999 V2000
   16.8489   -9.4891   13.8217 C   0  0  0  0  0  0  0  0  0  0  0  0
   18.1337  -10.0542   13.7925 C   0  0  0  0  0  0  0  0  0  0  0  0
   18.8395  -10.2574   14.9808 C   0  0  0  0  0  0  0  0  0  0  0  0
   18.2669   -9.8975   16.2035 C   0  0  0  0  0  0  0  0  0  0  0  0
   16.9876   -9.3336   16.2476 C   0  0  0  0  0  0  0  0  0  0  0  0
   16.2842   -9.1325   15.0502 C   0  0  0  0  0  0  0  0  0  0  0  0
   16.4359   -8.9744   17.5213 N   0  0  0  0  0  0  0  0  0  0  0  0
   15.3315   -8.0930   17.7596 C   0  0  0  0  0  0  0  0  0  0  0  0
   14.7212   -7.5367   16.8087 O   0  0  0  0  0  0  0  0  0  0  0  0
   16.8599   -9.3749   18.3145 H   0  0  0  0  0  0  0  0  0  0  0  0
   14.9205   -7.8028   19.1620 C   0  0  0  0  0  0  0  0  0  0  0  0
   15.6260   -6.6693   19.6579 O   0  0  0  0  0  0  0  0  0  0  0  0
   16.3074   -6.6631   20.8801 C   0  0  0  0  0  0  0  0  0  0  0  0
   17.6766   -6.3759   20.8895 C   0  0  0  0  0  0  0  0  0  0  0  0
   18.3870   -6.3613   22.0935 C   0  0  0  0  0  0  0  0  0  0  0  0
   17.7298   -6.6329   23.2967 C   0  0  0  0  0  0  0  0  0  0  0  0
   16.3619   -6.9183   23.2967 C   0  0  0  0  0  0  0  0  0  0  0  0
   15.6516   -6.9326   22.0931 C   0  0  0  0  0  0  0  0  0  0  0  0
   16.1164   -9.2712   12.6523 O   0  0  0  0  0  0  0  0  0  0  0  0
   16.0250  -10.2367   11.6128 C   0  0  0  0  0  0  0  0  0  0  0  0
   18.8750   -8.1962    7.3844 N   0  0  0  0  0  0  0  0  0  0  0  0
   19.6836   -7.3879    8.1145 C   0  0  0  0  0  0  0  0  0  0  0  0
   19.4094   -7.4846    9.4445 N   0  0  0  0  0  0  0  0  0  0  0  0
   18.4066   -8.3842    9.4593 C   0  0  0  0  0  0  0  0  0  0  0  0
   17.7638   -8.8324   10.5654 N   0  0  0  0  0  0  0  0  0  0  0  0
   16.7641   -9.7515   10.4176 C   0  0  0  0  0  0  0  0  0  0  0  0
   16.3986  -10.2123    9.1365 C   0  0  0  0  0  0  0  0  0  0  0  0
   17.0902   -9.7204    8.0228 C   0  0  0  0  0  0  0  0  0  0  0  0
   16.7953  -10.1111    6.8627 O   0  0  0  0  0  0  0  0  0  0  0  0
   18.0806   -8.8139    8.2390 N   0  0  0  0  0  0  0  0  0  0  0  0
   17.7258   -7.5826    5.3118 C   0  0  0  0  0  0  0  0  0  0  0  0
   18.8720   -8.3595    5.9324 C   0  0  0  0  0  0  0  0  0  0  0  0
   20.1917   -7.8984    5.3423 C   0  0  0  0  0  0  0  0  0  0  0  0
 31 32  1  0  0  0
 32 33  1  0  0  0
 32 21  1  0  0  0
 21 22  1  0  0  0
 22 23  2  0  0  0
 23 24  1  0  0  0
 24 25  2  0  0  0
 25 26  1  0  0  0
 26 20  1  0  0  0
 20 19  1  0  0  0
 19  1  1  0  0  0
  1  2  2  0  0  0
  2  3  1  0  0  0
  3  4  2  0  0  0
  4  5  1  0  0  0
  5  7  1  0  0  0
  7  8  1  0  0  0
  8  9  2  0  0  0
  8 11  1  0  0  0
 11 12  1  0  0  0
 12 13  1  0  0  0
 13 14  2  0  0  0
 14 15  1  0  0  0
 15 16  2  0  0  0
 16 17  1  0  0  0
 17 18  2  0  0  0
  5  6  2  0  0  0
 26 27  2  0  0  0
 27 28  1  0  0  0
 28 29  2  0  0  0
 28 30  1  0  0  0
 30 21  1  0  0  0
 30 24  1  0  0  0
  6  1  1  0  0  0
 18 13  1  0  0  0
  7 10  1  0  0  0
M  END
>  <minimizedAffinity>
-7.08722

>  <minimizedRMSD>
1.61236

$$$$
ChemDiv-C679-4353 MCULE-2347930699 MolPort-007-655-838 PubChem-46258342 ZINC000013368053


 30 33  0  0  0  0  0  0  0  0999 V2000
   16.8044   -9.4272   15.0051 C   0  0  0  0  0  0  0  0  0  0  0  0
   17.3810  -10.5075   15.6917 C   0  0  0  0  0  0  0  0  0  0  0  0
   17.2352  -10.6187   17.0759 C   0  0  0  0  0  0  0  0  0  0  0  0
   16.5113   -9.6539   17.7811 C   0  0  0  0  0  0  0  0  0  0  0  0
   15.9262   -8.5757   17.1094 C   0  0  0  0  0  0  0  0  0  0  0  0
   16.0790   -8.4686   15.7196 C   0  0  0  0  0  0  0  0  0  0  0  0
   15.1956   -7.6040   17.8693 N   0  0  0  0  0  0  0  0  0  0  0  0
   13.8044   -7.6555   18.2200 C   0  0  0  0  0  0  0  0  0  0  0  0
   13.1040   -8.6597   17.9196 O   0  0  0  0  0  0  0  0  0  0  0  0
   15.7006   -6.8195   18.1834 H   0  0  0  0  0  0  0  0  0  0  0  0
   13.1931   -6.5294   18.9481 C   0  0  0  0  0  0  0  0  0  0  0  0
   13.5362   -6.2808   20.2848 C   0  0  0  0  0  0  0  0  0  0  0  0
   12.9603   -5.2104   20.9755 C   0  0  0  0  0  0  0  0  0  0  0  0
   12.0375   -4.3800   20.3340 C   0  0  0  0  0  0  0  0  0  0  0  0
   11.6900   -4.6202   19.0021 C   0  0  0  0  0  0  0  0  0  0  0  0
   12.2652   -5.6912   18.3117 C   0  0  0  0  0  0  0  0  0  0  0  0
   16.9455   -9.2772   13.6232 O   0  0  0  0  0  0  0  0  0  0  0  0
   17.9610   -9.9392   12.8781 C   0  0  0  0  0  0  0  0  0  0  0  0
   17.3930   -9.1650    8.7715 N   0  0  0  0  0  0  0  0  0  0  0  0
   17.3524   -8.8388    7.4816 N   0  0  0  0  0  0  0  0  0  0  0  0
   18.4601   -8.1612    7.0930 C   0  0  0  0  0  0  0  0  0  0  0  0
   19.5448   -7.9217    8.3778 S   0  0  0  0  0  0  0  0  0  0  0  0
   18.5076   -8.7480    9.4089 C   0  0  0  0  0  0  0  0  0  0  0  0
   18.7077   -8.9923   10.7270 N   0  0  0  0  0  0  0  0  0  0  0  0
   17.7643   -9.6842   11.4266 C   0  0  0  0  0  0  0  0  0  0  0  0
   16.5933  -10.1299   10.7890 C   0  0  0  0  0  0  0  0  0  0  0  0
   16.4221   -9.8547    9.4278 C   0  0  0  0  0  0  0  0  0  0  0  0
   15.3839  -10.2410    8.8267 O   0  0  0  0  0  0  0  0  0  0  0  0
   18.6572   -7.6413    5.7128 C   0  0  0  0  0  0  0  0  0  0  0  0
   20.1016   -7.2263    5.5191 C   0  0  0  0  0  0  0  0  0  0  0  0
 19 20  1  0  0  0
 20 21  2  0  0  0
 21 22  1  0  0  0
 22 23  1  0  0  0
 23 24  2  0  0  0
 24 25  1  0  0  0
 25 18  1  0  0  0
 18 17  1  0  0  0
 17  1  1  0  0  0
  1  2  2  0  0  0
  2  3  1  0  0  0
  3  4  2  0  0  0
  4  5  1  0  0  0
  5  6  2  0  0  0
  5  7  1  0  0  0
  7  8  1  0  0  0
  8 11  1  0  0  0
 11 12  2  0  0  0
 12 13  1  0  0  0
 13 14  2  0  0  0
 14 15  1  0  0  0
 15 16  2  0  0  0
  8  9  2  0  0  0
 25 26  2  0  0  0
 26 27  1  0  0  0
 27 28  2  0  0  0
 21 29  1  0  0  0
 29 30  1  0  0  0
 23 19  1  0  0  0
  6  1  1  0  0  0
 16 11  1  0  0  0
 27 19  1  0  0  0
  7 10  1  0  0  0
M  END
>  <minimizedAffinity>
-7.07608

>  <minimizedRMSD>
1.44641

$$$$
ChemDiv-C679-6510 MCULE-8842671080 MolPort-007-656-259 PubChem-20874397 ZINC000013368535 ZINC13368535


 29 31  0  0  0  0  0  0  0  0999 V2000
   17.4031  -10.3006   12.7948 O   0  0  0  0  0  0  0  0  0  0  0  0
   16.9305  -10.2121   16.4637 C   0  0  0  0  0  0  0  0  0  0  0  0
   16.8631   -9.8763   15.1028 C   0  0  0  0  0  0  0  0  0  0  0  0
   17.4939  -10.6694   14.1393 C   0  0  0  0  0  0  0  0  0  0  0  0
   18.2006  -11.8129   14.5437 C   0  0  0  0  0  0  0  0  0  0  0  0
   18.2715  -12.1534   15.8966 C   0  0  0  0  0  0  0  0  0  0  0  0
   17.6378  -11.3545   16.8521 C   0  0  0  0  0  0  0  0  0  0  0  0
   15.5546   -8.2065   17.2762 C   0  0  0  0  0  0  0  0  0  0  0  0
   15.4153   -7.7150   16.1226 O   0  0  0  0  0  0  0  0  0  0  0  0
   16.2930   -9.4188   17.4743 N   0  0  0  0  0  0  0  0  0  0  0  0
   16.3708   -9.7408   18.4014 H   0  0  0  0  0  0  0  0  0  0  0  0
   14.9578   -7.5308   18.4748 C   0  0  0  0  0  0  0  0  0  0  0  0
   13.5112   -7.0900   18.2657 C   0  0  0  0  0  0  0  0  0  0  0  0
   13.0059   -7.6115   20.6532 C   0  0  0  0  0  0  0  0  0  0  0  0
   12.5696   -7.8157   19.2148 C   0  0  0  0  0  0  0  0  0  0  0  0
   18.2115   -9.2813   12.2220 C   0  0  0  0  0  0  0  0  0  0  0  0
   18.0265   -9.2685   10.7470 C   0  0  0  0  0  0  0  0  0  0  0  0
   16.9666   -9.9877   10.1704 C   0  0  0  0  0  0  0  0  0  0  0  0
   16.7964   -9.9375    8.7825 C   0  0  0  0  0  0  0  0  0  0  0  0
   15.8573  -10.5734    8.2345 O   0  0  0  0  0  0  0  0  0  0  0  0
   17.6588   -9.1915    8.0430 N   0  0  0  0  0  0  0  0  0  0  0  0
   17.6038   -9.0552    6.7203 N   0  0  0  0  0  0  0  0  0  0  0  0
   18.5888   -8.2516    6.2508 C   0  0  0  0  0  0  0  0  0  0  0  0
   19.5750   -7.6548    7.4972 S   0  0  0  0  0  0  0  0  0  0  0  0
   18.6639   -8.5035    8.6245 C   0  0  0  0  0  0  0  0  0  0  0  0
   18.8605   -8.5257    9.9654 N   0  0  0  0  0  0  0  0  0  0  0  0
   18.7368   -7.8935    4.8112 C   0  0  0  0  0  0  0  0  0  0  0  0
   19.9562   -8.5713    4.2074 C   0  0  0  0  0  0  0  0  0  0  0  0
   20.9905   -7.5400    3.7966 C   0  0  0  0  0  0  0  0  0  0  0  0
 14 15  1  0  0  0
 15 13  1  0  0  0
 13 12  1  0  0  0
 12  8  1  0  0  0
  8  9  2  0  0  0
  8 10  1  0  0  0
 10  2  1  0  0  0
  2  3  2  0  0  0
  3  4  1  0  0  0
  4  1  1  0  0  0
  4  5  2  0  0  0
  1 16  1  0  0  0
 16 17  1  0  0  0
 17 18  2  0  0  0
 18 19  1  0  0  0
 19 20  2  0  0  0
 19 21  1  0  0  0
 21 22  1  0  0  0
 22 23  2  0  0  0
 23 27  1  0  0  0
 23 24  1  0  0  0
 27 28  1  0  0  0
 28 29  1  0  0  0
 24 25  1  0  0  0
 25 26  2  0  0  0
 25 21  1  0  0  0
 26 17  1  0  0  0
  5  6  1  0  0  0
  6  7  2  0  0  0
  7  2  1  0  0  0
 10 11  1  0  0  0
M  END
>  <minimizedAffinity>
-7.07039

>  <minimizedRMSD>
1.76057

$$$$
ChemDiv-D483-1315 MCULE-7551155929 MolPort-007-710-918 PubChem-20899048 ZINC000015859210 ZINC15859210


 35 39  0  0  0  0  0  0  0  0999 V2000
   17.8013  -11.1964   15.2521 C   0  0  0  0  0  0  0  0  0  0  0  0
   17.1446  -10.0565   14.6326 N   0  0  0  0  0  0  0  0  0  0  0  0
   16.8974   -9.8386   13.3289 C   0  0  0  0  0  0  0  0  0  0  0  0
   16.2746   -8.6588   13.1411 N   0  0  0  0  0  0  0  0  0  0  0  0
   16.1087   -8.1123   14.3384 N   0  0  0  0  0  0  0  0  0  0  0  0
   16.6369   -8.9679   15.2342 C   0  0  0  0  0  0  0  0  0  0  0  0
   17.3146  -10.7415   12.2100 C   0  0  0  0  0  0  0  0  0  0  0  0
   17.1720  -10.0545   10.8786 C   0  0  0  0  0  0  0  0  0  0  0  0
   15.9251   -9.9846   10.2384 C   0  0  0  0  0  0  0  0  0  0  0  0
   14.6932  -10.5425   10.8672 C   0  0  0  0  0  0  0  0  0  0  0  0
   15.8207   -9.3812    9.0295 N   0  0  0  0  0  0  0  0  0  0  0  0
   16.8994   -8.8345    8.4156 C   0  0  0  0  0  0  0  0  0  0  0  0
   16.7395   -8.2317    7.1657 C   0  0  0  0  0  0  0  0  0  0  0  0
   17.8437   -7.6700    6.5283 C   0  0  0  0  0  0  0  0  0  0  0  0
   19.0925   -7.7151    7.1434 C   0  0  0  0  0  0  0  0  0  0  0  0
   20.2802   -7.1348    6.4661 C   0  0  0  0  0  0  0  0  0  0  0  0
   19.2198   -8.3217    8.3940 C   0  0  0  0  0  0  0  0  0  0  0  0
   18.1356   -8.8710    9.0194 N   0  0  0  0  0  0  0  0  0  0  0  0
   18.2806   -9.4658   10.2443 C   0  0  0  0  0  0  0  0  0  0  0  0
   19.4098   -9.4880   10.8120 O   0  0  0  0  0  0  0  0  0  0  0  0
   16.6934   -8.6542   16.9978 S   0  0  0  0  0  0  0  0  0  0  0  0
   14.9668   -8.0873   17.0587 C   0  0  0  0  0  0  0  0  0  0  0  0
   14.6694   -7.4403   18.3675 C   0  0  0  0  0  0  0  0  0  0  0  0
   13.7414   -6.5925   18.4492 O   0  0  0  0  0  0  0  0  0  0  0  0
   15.4463   -7.8043   19.5149 N   0  0  0  0  0  0  0  0  0  0  0  0
   16.1805   -8.4432   19.3665 H   0  0  0  0  0  0  0  0  0  0  0  0
   15.2646   -7.3338   20.8571 C   0  0  0  0  0  0  0  0  0  0  0  0
   14.0801   -7.6006   21.5887 C   0  0  0  0  0  0  0  0  0  0  0  0
   13.9237   -7.1291   22.9043 C   0  0  0  0  0  0  0  0  0  0  0  0
   14.9726   -6.3963   23.4512 C   0  0  0  0  0  0  0  0  0  0  0  0
   15.0605   -5.8282   24.7061 O   0  0  0  0  0  0  0  0  0  0  0  0
   16.3329   -5.1741   24.8094 C   0  0  0  0  0  0  0  0  0  0  0  0
   16.9682   -5.3940   23.5418 O   0  0  0  0  0  0  0  0  0  0  0  0
   16.1099   -6.1385   22.7581 C   0  0  0  0  0  0  0  0  0  0  0  0
   16.3003   -6.5916   21.4559 C   0  0  0  0  0  0  0  0  0  0  0  0
  1  2  1  0  0  0
  2  3  1  0  0  0
  3  7  1  0  0  0
  3  4  2  0  0  0
  7  8  1  0  0  0
  8  9  2  0  0  0
  9 10  1  0  0  0
  9 11  1  0  0  0
 11 12  2  0  0  0
 12 13  1  0  0  0
 13 14  2  0  0  0
 14 15  1  0  0  0
 15 16  1  0  0  0
 15 17  2  0  0  0
 17 18  1  0  0  0
 18 19  1  0  0  0
 18 12  1  0  0  0
 19 20  2  0  0  0
 19  8  1  0  0  0
  4  5  1  0  0  0
  5  6  2  0  0  0
  6 21  1  0  0  0
  6  2  1  0  0  0
 21 22  1  0  0  0
 22 23  1  0  0  0
 23 24  2  0  0  0
 23 25  1  0  0  0
 25 27  1  0  0  0
 27 28  2  0  0  0
 28 29  1  0  0  0
 29 30  2  0  0  0
 30 31  1  0  0  0
 31 32  1  0  0  0
 32 33  1  0  0  0
 33 34  1  0  0  0
 34 35  2  0  0  0
 34 30  1  0  0  0
 35 27  1  0  0  0
 25 26  1  0  0  0
M  END
>  <minimizedAffinity>
-7.05882

>  <minimizedRMSD>
2.10914

$$$$
ChemDiv-D549-0006 MCULE-7802803399 MolPort-009-676-594 PubChem-52991737 ZINC000064370021 ZINC64370021


 34 37  0  0  0  0  0  0  0  0999 V2000
   16.6928  -10.2059   14.1084 C   0  0  0  0  0  0  0  0  0  0  0  0
   15.4276   -9.9303   13.7413 N   0  0  0  0  0  0  0  0  0  0  0  0
   15.4627   -9.6109   12.4551 N   0  0  0  0  0  0  0  0  0  0  0  0
   16.7498   -9.6874   12.0608 C   0  0  0  0  0  0  0  0  0  0  0  0
   17.5470  -10.0653   13.0805 N   0  0  0  0  0  0  0  0  0  0  0  0
   18.9548  -10.4309   13.0544 C   0  0  0  0  0  0  0  0  0  0  0  0
   17.1772   -9.4472   10.6712 C   0  0  0  0  0  0  0  0  0  0  0  0
   18.2578   -8.6665   10.2368 C   0  0  0  0  0  0  0  0  0  0  0  0
   19.1008   -7.9173   11.1079 N   0  0  0  0  0  0  0  0  0  0  0  0
   18.3557   -8.6008    8.8437 C   0  0  0  0  0  0  0  0  0  0  0  0
   19.3011   -7.9007    8.0947 C   0  0  0  0  0  0  0  0  0  0  0  0
   19.2120   -7.9538    6.6949 C   0  0  0  0  0  0  0  0  0  0  0  0
   18.1818   -8.6967    6.0859 C   0  0  0  0  0  0  0  0  0  0  0  0
   17.2671   -9.3653    6.8466 N   0  0  0  0  0  0  0  0  0  0  0  0
   17.3627   -9.3129    8.1982 C   0  0  0  0  0  0  0  0  0  0  0  0
   16.3370  -10.0275    9.3160 S   0  0  0  0  0  0  0  0  0  0  0  0
   18.9949   -7.9961   12.0835 H   0  0  0  0  0  0  0  0  0  0  0  0
   19.7893   -7.3210   10.7341 H   0  0  0  0  0  0  0  0  0  0  0  0
   17.1537  -10.7443   15.7553 S   0  0  0  0  0  0  0  0  0  0  0  0
   17.6174   -9.0668   16.2860 C   0  0  0  0  0  0  0  0  0  0  0  0
   16.0254   -8.3094   18.0910 N   0  0  0  0  0  0  0  0  0  0  0  0
   16.4109   -8.3045   16.7102 C   0  0  0  0  0  0  0  0  0  0  0  0
   15.7400   -7.6815   15.8455 O   0  0  0  0  0  0  0  0  0  0  0  0
   16.6086   -8.8062   18.7093 H   0  0  0  0  0  0  0  0  0  0  0  0
   12.5472   -6.9654   18.5491 C   0  0  0  0  0  0  0  0  0  0  0  0
   12.6569   -6.4059   19.8298 C   0  0  0  0  0  0  0  0  0  0  0  0
   13.8653   -6.4752   20.5248 C   0  0  0  0  0  0  0  0  0  0  0  0
   14.9820   -7.1043   19.9507 C   0  0  0  0  0  0  0  0  0  0  0  0
   14.8782   -7.6660   18.6673 C   0  0  0  0  0  0  0  0  0  0  0  0
   13.6580   -7.5912   17.9779 C   0  0  0  0  0  0  0  0  0  0  0  0
   10.4076   -7.9755   17.8280 C   0  0  0  0  0  0  0  0  0  0  0  0
   11.3527   -6.9144   17.8256 O   0  0  0  0  0  0  0  0  0  0  0  0
   16.1996   -7.1819   20.6366 O   0  0  0  0  0  0  0  0  0  0  0  0
   16.4054   -6.5852   21.9100 C   0  0  0  0  0  0  0  0  0  0  0  0
 31 32  1  0  0  0
 32 25  1  0  0  0
 25 26  2  0  0  0
 26 27  1  0  0  0
 27 28  2  0  0  0
 28 33  1  0  0  0
 33 34  1  0  0  0
 28 29  1  0  0  0
 29 21  1  0  0  0
 21 22  1  0  0  0
 22 23  2  0  0  0
 22 20  1  0  0  0
 20 19  1  0  0  0
 19  1  1  0  0  0
  1  2  2  0  0  0
  2  3  1  0  0  0
  3  4  2  0  0  0
  4  5  1  0  0  0
  5  6  1  0  0  0
  4  7  1  0  0  0
  7  8  2  0  0  0
  8  9  1  0  0  0
  8 10  1  0  0  0
 10 11  2  0  0  0
 11 12  1  0  0  0
 12 13  2  0  0  0
 13 14  1  0  0  0
 14 15  2  0  0  0
 15 16  1  0  0  0
 29 30  2  0  0  0
 30 25  1  0  0  0
  5  1  1  0  0  0
 16  7  1  0  0  0
 15 10  1  0  0  0
 21 24  1  0  0  0
  9 17  1  0  0  0
  9 18  1  0  0  0
M  END
>  <minimizedAffinity>
-7.04828

>  <minimizedRMSD>
1.13842

$$$$
ChemDiv-C679-6554 MCULE-7379643783 MolPort-007-656-284 PubChem-20874412 ZINC000020859481


 33 36  0  0  0  0  0  0  0  0999 V2000
   16.2229   -9.0427   15.3732 C   0  0  0  0  0  0  0  0  0  0  0  0
   17.0065   -9.8294   16.2309 C   0  0  0  0  0  0  0  0  0  0  0  0
   16.9076   -9.6723   17.6160 C   0  0  0  0  0  0  0  0  0  0  0  0
   16.0256   -8.7296   18.1524 C   0  0  0  0  0  0  0  0  0  0  0  0
   15.2370   -7.9424   17.3080 C   0  0  0  0  0  0  0  0  0  0  0  0
   15.3396   -8.1046   15.9178 C   0  0  0  0  0  0  0  0  0  0  0  0
   14.3434   -6.9840   17.8859 N   0  0  0  0  0  0  0  0  0  0  0  0
   14.6794   -6.0710   18.0369 H   0  0  0  0  0  0  0  0  0  0  0  0
   12.7061   -7.3337   18.3358 S   0  0  0  0  0  0  0  0  0  0  0  0
   11.7704   -6.9911   17.2094 O   0  0  0  0  0  0  0  0  0  0  0  0
   12.5833   -8.7954   18.6666 O   0  0  0  0  0  0  0  0  0  0  0  0
   12.2847   -6.3655   19.7373 C   0  0  0  0  0  0  0  0  0  0  0  0
   11.4285   -5.2640   19.6086 C   0  0  0  0  0  0  0  0  0  0  0  0
   11.0968   -4.5005   20.7336 C   0  0  0  0  0  0  0  0  0  0  0  0
   11.6205   -4.8374   21.9881 C   0  0  0  0  0  0  0  0  0  0  0  0
   12.4765   -5.9361   22.1183 C   0  0  0  0  0  0  0  0  0  0  0  0
   12.8083   -6.6993   20.9939 C   0  0  0  0  0  0  0  0  0  0  0  0
   11.2677   -4.0267   23.1826 C   0  0  0  0  0  0  0  0  0  0  0  0
   16.2992   -9.1730   13.9843 O   0  0  0  0  0  0  0  0  0  0  0  0
   17.1819  -10.0862   13.3468 C   0  0  0  0  0  0  0  0  0  0  0  0
   17.4130   -9.1613    9.2401 N   0  0  0  0  0  0  0  0  0  0  0  0
   17.6193   -8.7866    7.9801 N   0  0  0  0  0  0  0  0  0  0  0  0
   18.7779   -8.0979    7.8386 C   0  0  0  0  0  0  0  0  0  0  0  0
   19.5990   -7.9179    9.3136 S   0  0  0  0  0  0  0  0  0  0  0  0
   18.3850   -8.7760   10.0939 C   0  0  0  0  0  0  0  0  0  0  0  0
   18.3293   -9.0675   11.4165 N   0  0  0  0  0  0  0  0  0  0  0  0
   17.2656   -9.7713   11.8970 C   0  0  0  0  0  0  0  0  0  0  0  0
   16.2354  -10.1797   11.0335 C   0  0  0  0  0  0  0  0  0  0  0  0
   16.3302   -9.8587    9.6745 C   0  0  0  0  0  0  0  0  0  0  0  0
   15.4241  -10.2120    8.8738 O   0  0  0  0  0  0  0  0  0  0  0  0
   19.2404   -7.5282    6.5413 C   0  0  0  0  0  0  0  0  0  0  0  0
   18.9522   -8.4891    5.3964 C   0  0  0  0  0  0  0  0  0  0  0  0
   19.6810   -8.0538    4.1380 C   0  0  0  0  0  0  0  0  0  0  0  0
 21 22  1  0  0  0
 22 23  2  0  0  0
 23 24  1  0  0  0
 24 25  1  0  0  0
 25 26  2  0  0  0
 26 27  1  0  0  0
 27 20  1  0  0  0
 20 19  1  0  0  0
 19  1  1  0  0  0
  1  2  2  0  0  0
  2  3  1  0  0  0
  3  4  2  0  0  0
  4  5  1  0  0  0
  5  6  2  0  0  0
  5  7  1  0  0  0
  7  9  1  0  0  0
  9 10  2  0  0  0
  9 11  2  0  0  0
  9 12  1  0  0  0
 12 13  2  0  0  0
 13 14  1  0  0  0
 14 15  2  0  0  0
 15 16  1  0  0  0
 16 17  2  0  0  0
 15 18  1  0  0  0
 27 28  2  0  0  0
 28 29  1  0  0  0
 29 30  2  0  0  0
 23 31  1  0  0  0
 31 32  1  0  0  0
 32 33  1  0  0  0
 25 21  1  0  0  0
  6  1  1  0  0  0
 17 12  1  0  0  0
 29 21  1  0  0  0
  7  8  1  0  0  0
M  END
>  <minimizedAffinity>
-7.04206

>  <minimizedRMSD>
2.35364

$$$$
ChemDiv-C679-4203 MCULE-7864766125 MolPort-007-655-814 PubChem-20874228 ZINC000020859174 ZINC20859174


 35 38  0  0  0  0  0  0  0  0999 V2000
   16.9536   -9.0602   16.5853 C   0  0  0  0  0  0  0  0  0  0  0  0
   16.3601   -8.8444   15.3321 C   0  0  0  0  0  0  0  0  0  0  0  0
   17.0509   -9.1446   14.1536 C   0  0  0  0  0  0  0  0  0  0  0  0
   18.3520   -9.6663   14.2317 C   0  0  0  0  0  0  0  0  0  0  0  0
   18.9481   -9.8851   15.4759 C   0  0  0  0  0  0  0  0  0  0  0  0
   18.2493   -9.5836   16.6480 C   0  0  0  0  0  0  0  0  0  0  0  0
   15.0941   -7.9560   17.9602 C   0  0  0  0  0  0  0  0  0  0  0  0
   14.5508   -7.4000   16.9693 O   0  0  0  0  0  0  0  0  0  0  0  0
   16.2705   -8.7604   17.8097 N   0  0  0  0  0  0  0  0  0  0  0  0
   16.6487   -9.1472   18.6322 H   0  0  0  0  0  0  0  0  0  0  0  0
   14.5278   -7.7380   19.3209 C   0  0  0  0  0  0  0  0  0  0  0  0
   15.2354   -6.6970   19.9871 O   0  0  0  0  0  0  0  0  0  0  0  0
   16.7921   -7.0345   23.8852 C   0  0  0  0  0  0  0  0  0  0  0  0
   15.4643   -7.3935   23.6339 C   0  0  0  0  0  0  0  0  0  0  0  0
   14.9369   -7.2867   22.3442 C   0  0  0  0  0  0  0  0  0  0  0  0
   15.7354   -6.8191   21.2881 C   0  0  0  0  0  0  0  0  0  0  0  0
   17.0625   -6.4580   21.5398 C   0  0  0  0  0  0  0  0  0  0  0  0
   17.5906   -6.5651   22.8295 C   0  0  0  0  0  0  0  0  0  0  0  0
   18.6759   -7.2848   25.4695 C   0  0  0  0  0  0  0  0  0  0  0  0
   17.2895   -7.1517   25.1861 O   0  0  0  0  0  0  0  0  0  0  0  0
   16.4239   -8.9180   12.9260 O   0  0  0  0  0  0  0  0  0  0  0  0
   16.0571   -9.9713   12.0450 C   0  0  0  0  0  0  0  0  0  0  0  0
   16.6201   -9.7102   10.6941 C   0  0  0  0  0  0  0  0  0  0  0  0
   16.0624  -10.3469    9.5733 C   0  0  0  0  0  0  0  0  0  0  0  0
   16.5914  -10.0675    8.3087 C   0  0  0  0  0  0  0  0  0  0  0  0
   16.1155  -10.6246    7.2839 O   0  0  0  0  0  0  0  0  0  0  0  0
   17.6210   -9.1857    8.2093 N   0  0  0  0  0  0  0  0  0  0  0  0
   18.2069   -8.8279    7.0694 N   0  0  0  0  0  0  0  0  0  0  0  0
   19.2030   -7.9279    7.2686 C   0  0  0  0  0  0  0  0  0  0  0  0
   19.3854   -7.5350    8.9094 S   0  0  0  0  0  0  0  0  0  0  0  0
   18.1334   -8.5833    9.3030 C   0  0  0  0  0  0  0  0  0  0  0  0
   17.6489   -8.8282   10.5448 N   0  0  0  0  0  0  0  0  0  0  0  0
   20.0216   -7.3351    6.1708 C   0  0  0  0  0  0  0  0  0  0  0  0
   20.1206   -8.2983    5.0035 C   0  0  0  0  0  0  0  0  0  0  0  0
   19.4103   -6.0268    5.7076 C   0  0  0  0  0  0  0  0  0  0  0  0
 19 20  1  0  0  0
 20 13  1  0  0  0
 13 14  2  0  0  0
 14 15  1  0  0  0
 15 16  2  0  0  0
 16 12  1  0  0  0
 16 17  1  0  0  0
 12 11  1  0  0  0
 11  7  1  0  0  0
  7  8  2  0  0  0
  7  9  1  0  0  0
  9  1  1  0  0  0
  1  2  2  0  0  0
  2  3  1  0  0  0
  3 21  1  0  0  0
  3  4  2  0  0  0
 21 22  1  0  0  0
 22 23  1  0  0  0
 23 24  2  0  0  0
 24 25  1  0  0  0
 25 26  2  0  0  0
 25 27  1  0  0  0
 27 28  1  0  0  0
 28 29  2  0  0  0
 29 30  1  0  0  0
 29 33  1  0  0  0
 30 31  1  0  0  0
 31 32  2  0  0  0
 31 27  1  0  0  0
 32 23  1  0  0  0
 33 34  1  0  0  0
 33 35  1  0  0  0
  4  5  1  0  0  0
  5  6  2  0  0  0
  6  1  1  0  0  0
 17 18  2  0  0  0
 18 13  1  0  0  0
  9 10  1  0  0  0
M  END
>  <minimizedAffinity>
-7.03357

>  <minimizedRMSD>
1.68114

$$$$
ChemDiv-D549-0008 MCULE-3591530553 MolPort-009-676-596 PubChem-52991739 ZINC000064370023 ZINC64370023


 30 33  0  0  0  0  0  0  0  0999 V2000
   19.0576  -10.4323   12.8093 C   0  0  0  0  0  0  0  0  0  0  0  0
   17.6496  -10.0666   12.8067 N   0  0  0  0  0  0  0  0  0  0  0  0
   16.7679  -10.2334   13.8071 C   0  0  0  0  0  0  0  0  0  0  0  0
   15.5132   -9.9469   13.4134 N   0  0  0  0  0  0  0  0  0  0  0  0
   15.5830   -9.5942   12.1374 N   0  0  0  0  0  0  0  0  0  0  0  0
   16.8802   -9.6617   11.7761 C   0  0  0  0  0  0  0  0  0  0  0  0
   17.3449   -9.3857   10.4053 C   0  0  0  0  0  0  0  0  0  0  0  0
   18.4255   -8.5794   10.0198 C   0  0  0  0  0  0  0  0  0  0  0  0
   19.2301   -7.8361   10.9312 N   0  0  0  0  0  0  0  0  0  0  0  0
   18.5637   -8.4828    8.6321 C   0  0  0  0  0  0  0  0  0  0  0  0
   19.5198   -7.7525    7.9265 C   0  0  0  0  0  0  0  0  0  0  0  0
   19.4732   -7.7774    6.5238 C   0  0  0  0  0  0  0  0  0  0  0  0
   18.4737   -8.5230    5.8688 C   0  0  0  0  0  0  0  0  0  0  0  0
   17.5475   -9.2214    6.5876 N   0  0  0  0  0  0  0  0  0  0  0  0
   17.6019   -9.1963    7.9422 C   0  0  0  0  0  0  0  0  0  0  0  0
   16.5549   -9.9500    9.0136 S   0  0  0  0  0  0  0  0  0  0  0  0
   19.0963   -7.9371   11.9013 H   0  0  0  0  0  0  0  0  0  0  0  0
   19.9197   -7.2215   10.5907 H   0  0  0  0  0  0  0  0  0  0  0  0
   17.1843  -10.8127   15.4520 S   0  0  0  0  0  0  0  0  0  0  0  0
   17.6784   -9.1557   16.0213 C   0  0  0  0  0  0  0  0  0  0  0  0
   16.4979   -8.3989   16.5246 C   0  0  0  0  0  0  0  0  0  0  0  0
   15.8283   -7.6994   15.7195 O   0  0  0  0  0  0  0  0  0  0  0  0
   16.1520   -8.4695   17.9146 N   0  0  0  0  0  0  0  0  0  0  0  0
   16.7452   -9.0040   18.4905 H   0  0  0  0  0  0  0  0  0  0  0  0
   15.0315   -7.8417   18.5519 C   0  0  0  0  0  0  0  0  0  0  0  0
   15.0715   -7.6374   19.9357 C   0  0  0  0  0  0  0  0  0  0  0  0
   13.9960   -7.0326   20.5934 C   0  0  0  0  0  0  0  0  0  0  0  0
   12.8714   -6.6288   19.8688 C   0  0  0  0  0  0  0  0  0  0  0  0
   12.8221   -6.8301   18.4869 C   0  0  0  0  0  0  0  0  0  0  0  0
   13.8981   -7.4349   17.8307 C   0  0  0  0  0  0  0  0  0  0  0  0
  1  2  1  0  0  0
  2  3  1  0  0  0
  3 19  1  0  0  0
  3  4  2  0  0  0
 19 20  1  0  0  0
 20 21  1  0  0  0
 21 22  2  0  0  0
 21 23  1  0  0  0
 23 25  1  0  0  0
 25 26  2  0  0  0
 26 27  1  0  0  0
 27 28  2  0  0  0
 28 29  1  0  0  0
 29 30  2  0  0  0
 30 25  1  0  0  0
  4  5  1  0  0  0
  5  6  2  0  0  0
  6  7  1  0  0  0
  6  2  1  0  0  0
  7  8  2  0  0  0
  8  9  1  0  0  0
  8 10  1  0  0  0
 10 11  2  0  0  0
 11 12  1  0  0  0
 12 13  2  0  0  0
 13 14  1  0  0  0
 14 15  2  0  0  0
 15 16  1  0  0  0
 15 10  1  0  0  0
 16  7  1  0  0  0
 23 24  1  0  0  0
  9 17  1  0  0  0
  9 18  1  0  0  0
M  END
>  <minimizedAffinity>
-7.02956

>  <minimizedRMSD>
0.99101

$$$$
ChemDiv-G357-0749 MCULE-5120030282 MolPort-007-847-312 PubChem-46343324 ZINC000015771765


 34 37  0  0  0  0  0  0  0  0999 V2000
   17.3540  -10.2550   15.2798 C   0  0  0  0  0  0  0  0  0  0  0  0
   18.1787  -11.1175   15.6911 O   0  0  0  0  0  0  0  0  0  0  0  0
   16.6513   -9.3894   16.2406 C   0  0  0  0  0  0  0  0  0  0  0  0
   15.6688   -8.4966   15.7940 C   0  0  0  0  0  0  0  0  0  0  0  0
   14.9986   -7.6731   16.7024 C   0  0  0  0  0  0  0  0  0  0  0  0
   15.3020   -7.7317   18.0706 C   0  0  0  0  0  0  0  0  0  0  0  0
   16.2835   -8.6231   18.5154 C   0  0  0  0  0  0  0  0  0  0  0  0
   16.9547   -9.4475   17.6078 C   0  0  0  0  0  0  0  0  0  0  0  0
   14.6363   -6.9028   19.0330 N   0  0  0  0  0  0  0  0  0  0  0  0
   13.3273   -7.1062   19.5874 C   0  0  0  0  0  0  0  0  0  0  0  0
   12.6313   -8.1001   19.2429 O   0  0  0  0  0  0  0  0  0  0  0  0
   15.1289   -6.1103   19.3468 H   0  0  0  0  0  0  0  0  0  0  0  0
   12.7930   -6.1453   20.5687 C   0  0  0  0  0  0  0  0  0  0  0  0
   12.6648   -6.5074   21.9178 C   0  0  0  0  0  0  0  0  0  0  0  0
   12.1581   -5.5967   22.8496 C   0  0  0  0  0  0  0  0  0  0  0  0
   11.7758   -4.3168   22.4391 C   0  0  0  0  0  0  0  0  0  0  0  0
   11.9001   -3.9473   21.0972 C   0  0  0  0  0  0  0  0  0  0  0  0
   12.4068   -4.8580   20.1654 C   0  0  0  0  0  0  0  0  0  0  0  0
   17.1029  -10.1171   13.9128 O   0  0  0  0  0  0  0  0  0  0  0  0
   17.7440  -10.9345   12.9448 C   0  0  0  0  0  0  0  0  0  0  0  0
   17.4152   -9.0749    9.1751 N   0  0  0  0  0  0  0  0  0  0  0  0
   17.4558   -8.4246    8.0148 N   0  0  0  0  0  0  0  0  0  0  0  0
   18.6199   -7.7507    7.8506 C   0  0  0  0  0  0  0  0  0  0  0  0
   19.6701   -7.9587    9.1679 S   0  0  0  0  0  0  0  0  0  0  0  0
   18.5291   -8.9323    9.9237 C   0  0  0  0  0  0  0  0  0  0  0  0
   18.6559   -9.5292   11.1339 N   0  0  0  0  0  0  0  0  0  0  0  0
   17.6341  -10.2983   11.6057 C   0  0  0  0  0  0  0  0  0  0  0  0
   16.4595  -10.4579   10.8523 C   0  0  0  0  0  0  0  0  0  0  0  0
   16.3681   -9.8259    9.6073 C   0  0  0  0  0  0  0  0  0  0  0  0
   15.3301   -9.9531    8.9054 O   0  0  0  0  0  0  0  0  0  0  0  0
   18.9484   -6.9716    6.6231 C   0  0  0  0  0  0  0  0  0  0  0  0
   19.7803   -7.8041    5.6611 C   0  0  0  0  0  0  0  0  0  0  0  0
   20.9584   -6.9837    5.1810 C   0  0  0  0  0  0  0  0  0  0  0  0
   18.9452   -8.2204    4.4647 C   0  0  0  0  0  0  0  0  0  0  0  0
 21 22  1  0  0  0
 22 23  2  0  0  0
 23 24  1  0  0  0
 24 25  1  0  0  0
 25 26  2  0  0  0
 26 27  1  0  0  0
 27 20  1  0  0  0
 20 19  1  0  0  0
 19  1  1  0  0  0
  1  2  2  0  0  0
  1  3  1  0  0  0
  3  4  2  0  0  0
  4  5  1  0  0  0
  5  6  2  0  0  0
  6  7  1  0  0  0
  7  8  2  0  0  0
  6  9  1  0  0  0
  9 10  1  0  0  0
 10 13  1  0  0  0
 13 14  2  0  0  0
 14 15  1  0  0  0
 15 16  2  0  0  0
 16 17  1  0  0  0
 17 18  2  0  0  0
 10 11  2  0  0  0
 27 28  2  0  0  0
 28 29  1  0  0  0
 29 30  2  0  0  0
 23 31  1  0  0  0
 31 32  1  0  0  0
 32 33  1  0  0  0
 32 34  1  0  0  0
 25 21  1  0  0  0
  8  3  1  0  0  0
 18 13  1  0  0  0
 29 21  1  0  0  0
  9 12  1  0  0  0
M  END
>  <minimizedAffinity>
-7.02725

>  <minimizedRMSD>
2.13708

$$$$
ChemDiv-D549-0035 MCULE-7541777429 MolPort-010-800-698 PubChem-53046631 ZINC000064793787 ZINC64793787


 32 35  0  0  0  0  0  0  0  0999 V2000
   19.1875  -10.6559   12.6773 C   0  0  0  0  0  0  0  0  0  0  0  0
   17.8009  -10.2228   12.7544 N   0  0  0  0  0  0  0  0  0  0  0  0
   16.9557  -10.3928   13.7855 C   0  0  0  0  0  0  0  0  0  0  0  0
   15.7013  -10.0280   13.4618 N   0  0  0  0  0  0  0  0  0  0  0  0
   15.7338   -9.6207   12.2006 N   0  0  0  0  0  0  0  0  0  0  0  0
   17.0092   -9.7341   11.7784 C   0  0  0  0  0  0  0  0  0  0  0  0
   17.4280   -9.4180   10.4014 C   0  0  0  0  0  0  0  0  0  0  0  0
   18.5047   -8.6126   10.0038 C   0  0  0  0  0  0  0  0  0  0  0  0
   19.3515   -7.9100   10.9093 N   0  0  0  0  0  0  0  0  0  0  0  0
   18.5942   -8.4712    8.6158 C   0  0  0  0  0  0  0  0  0  0  0  0
   19.5340   -7.7296    7.9004 C   0  0  0  0  0  0  0  0  0  0  0  0
   19.4366   -7.7069    6.5003 C   0  0  0  0  0  0  0  0  0  0  0  0
   18.4043   -8.4178    5.8578 C   0  0  0  0  0  0  0  0  0  0  0  0
   17.4952   -9.1286    6.5864 N   0  0  0  0  0  0  0  0  0  0  0  0
   17.5987   -9.1494    7.9383 C   0  0  0  0  0  0  0  0  0  0  0  0
   16.5808   -9.9257    9.0216 S   0  0  0  0  0  0  0  0  0  0  0  0
   19.2515   -8.0418   11.8798 H   0  0  0  0  0  0  0  0  0  0  0  0
   20.0366   -7.2928   10.5644 H   0  0  0  0  0  0  0  0  0  0  0  0
   17.4128  -11.0667   15.3826 S   0  0  0  0  0  0  0  0  0  0  0  0
   17.9875   -9.4572   16.0086 C   0  0  0  0  0  0  0  0  0  0  0  0
   16.8679   -8.4749   16.0392 C   0  0  0  0  0  0  0  0  0  0  0  0
   16.8302   -7.5514   15.1832 O   0  0  0  0  0  0  0  0  0  0  0  0
   15.8511   -8.5844   17.0384 N   0  0  0  0  0  0  0  0  0  0  0  0
   15.8979   -9.3313   17.6780 H   0  0  0  0  0  0  0  0  0  0  0  0
   14.7489   -7.6386   17.1510 C   0  0  0  0  0  0  0  0  0  0  0  0
   14.3731   -7.4438   18.5809 C   0  0  0  0  0  0  0  0  0  0  0  0
   15.3052   -7.6986   19.5934 C   0  0  0  0  0  0  0  0  0  0  0  0
   14.9546   -7.5036   20.9329 C   0  0  0  0  0  0  0  0  0  0  0  0
   13.6729   -7.0517   21.2615 C   0  0  0  0  0  0  0  0  0  0  0  0
   13.3335   -6.8628   22.5589 F   0  0  0  0  0  0  0  0  0  0  0  0
   12.7415   -6.7941   20.2508 C   0  0  0  0  0  0  0  0  0  0  0  0
   13.0917   -6.9892   18.9112 C   0  0  0  0  0  0  0  0  0  0  0  0
  1  2  1  0  0  0
  2  3  1  0  0  0
  3 19  1  0  0  0
  3  4  2  0  0  0
 19 20  1  0  0  0
 20 21  1  0  0  0
 21 22  2  0  0  0
 21 23  1  0  0  0
 23 25  1  0  0  0
 25 26  1  0  0  0
 26 27  2  0  0  0
 27 28  1  0  0  0
 28 29  2  0  0  0
 29 30  1  0  0  0
 29 31  1  0  0  0
 31 32  2  0  0  0
 32 26  1  0  0  0
  4  5  1  0  0  0
  5  6  2  0  0  0
  6  7  1  0  0  0
  6  2  1  0  0  0
  7  8  2  0  0  0
  8  9  1  0  0  0
  8 10  1  0  0  0
 10 11  2  0  0  0
 11 12  1  0  0  0
 12 13  2  0  0  0
 13 14  1  0  0  0
 14 15  2  0  0  0
 15 16  1  0  0  0
 15 10  1  0  0  0
 16  7  1  0  0  0
 23 24  1  0  0  0
  9 17  1  0  0  0
  9 18  1  0  0  0
M  END
>  <minimizedAffinity>
-7.01226

>  <minimizedRMSD>
1.55305

$$$$
ChemDiv-D549-1959 MCULE-1754217158 MolPort-010-800-794 PubChem-53046727 ZINC000064794157 ZINC64794157


 32 35  0  0  0  0  0  0  0  0999 V2000
   17.5048  -10.1180   13.1534 N   0  0  0  0  0  0  0  0  0  0  0  0
   16.6558  -10.2242   14.1927 C   0  0  0  0  0  0  0  0  0  0  0  0
   15.3956   -9.9156   13.8352 N   0  0  0  0  0  0  0  0  0  0  0  0
   15.4277   -9.6022   12.5477 N   0  0  0  0  0  0  0  0  0  0  0  0
   16.7089   -9.7122   12.1428 C   0  0  0  0  0  0  0  0  0  0  0  0
   17.1306   -9.4791   10.7504 C   0  0  0  0  0  0  0  0  0  0  0  0
   18.2178   -8.7120   10.3083 C   0  0  0  0  0  0  0  0  0  0  0  0
   19.0731   -7.9691   11.1726 N   0  0  0  0  0  0  0  0  0  0  0  0
   18.3087   -8.6511    8.9146 C   0  0  0  0  0  0  0  0  0  0  0  0
   19.2581   -7.9639    8.1585 C   0  0  0  0  0  0  0  0  0  0  0  0
   19.1606   -8.0197    6.7593 C   0  0  0  0  0  0  0  0  0  0  0  0
   18.1187   -8.7524    6.1580 C   0  0  0  0  0  0  0  0  0  0  0  0
   17.2005   -9.4084    6.9255 N   0  0  0  0  0  0  0  0  0  0  0  0
   17.3041   -9.3535    8.2763 C   0  0  0  0  0  0  0  0  0  0  0  0
   16.2763  -10.0533    9.4017 S   0  0  0  0  0  0  0  0  0  0  0  0
   18.9716   -8.0441   12.1490 H   0  0  0  0  0  0  0  0  0  0  0  0
   19.7656   -7.3809   10.7934 H   0  0  0  0  0  0  0  0  0  0  0  0
   19.1162  -11.9415   13.3725 C   0  0  0  0  0  0  0  0  0  0  0  0
   18.9223  -10.4580   13.1183 C   0  0  0  0  0  0  0  0  0  0  0  0
   17.1204  -10.7261   15.8505 S   0  0  0  0  0  0  0  0  0  0  0  0
   17.5040   -9.0236   16.3677 C   0  0  0  0  0  0  0  0  0  0  0  0
   16.2657   -8.3077   16.7847 C   0  0  0  0  0  0  0  0  0  0  0  0
   15.6288   -7.6309   15.9346 O   0  0  0  0  0  0  0  0  0  0  0  0
   15.7902   -8.4341   18.1295 N   0  0  0  0  0  0  0  0  0  0  0  0
   16.2008   -9.1339   18.6871 H   0  0  0  0  0  0  0  0  0  0  0  0
   14.7691   -7.6312   18.7349 C   0  0  0  0  0  0  0  0  0  0  0  0
   14.8543   -7.1852   20.0700 C   0  0  0  0  0  0  0  0  0  0  0  0
   15.8974   -7.5322   20.8632 F   0  0  0  0  0  0  0  0  0  0  0  0
   13.8182   -6.4226   20.6182 C   0  0  0  0  0  0  0  0  0  0  0  0
   12.6924   -6.1101   19.8527 C   0  0  0  0  0  0  0  0  0  0  0  0
   12.5926   -6.5717   18.5387 C   0  0  0  0  0  0  0  0  0  0  0  0
   13.6242   -7.3354   17.9864 C   0  0  0  0  0  0  0  0  0  0  0  0
 18 19  1  0  0  0
 19  1  1  0  0  0
  1  2  1  0  0  0
  2 20  1  0  0  0
  2  3  2  0  0  0
 20 21  1  0  0  0
 21 22  1  0  0  0
 22 23  2  0  0  0
 22 24  1  0  0  0
 24 26  1  0  0  0
 26 27  2  0  0  0
 27 28  1  0  0  0
 27 29  1  0  0  0
 29 30  2  0  0  0
 30 31  1  0  0  0
 31 32  2  0  0  0
 32 26  1  0  0  0
  3  4  1  0  0  0
  4  5  2  0  0  0
  5  6  1  0  0  0
  5  1  1  0  0  0
  6  7  2  0  0  0
  7  8  1  0  0  0
  7  9  1  0  0  0
  9 10  2  0  0  0
 10 11  1  0  0  0
 11 12  2  0  0  0
 12 13  1  0  0  0
 13 14  2  0  0  0
 14 15  1  0  0  0
 14  9  1  0  0  0
 15  6  1  0  0  0
 24 25  1  0  0  0
  8 16  1  0  0  0
  8 17  1  0  0  0
M  END
>  <minimizedAffinity>
-7.00803

>  <minimizedRMSD>
1.00935

$$$$
ChemDiv-G756-0549 MCULE-7924803989 MolPort-007-879-260 PubChem-22580451 ZINC000021099811 ZINC21099811


 29 32  0  0  0  0  0  0  0  0999 V2000
   17.3272   -9.9143   15.1633 C   0  0  0  0  0  0  0  0  0  0  0  0
   18.0092  -11.0177   15.6999 C   0  0  0  0  0  0  0  0  0  0  0  0
   17.9634  -11.2729   17.0725 C   0  0  0  0  0  0  0  0  0  0  0  0
   17.2374  -10.4282   17.9161 C   0  0  0  0  0  0  0  0  0  0  0  0
   16.5538   -9.3245   17.3957 C   0  0  0  0  0  0  0  0  0  0  0  0
   16.6036   -9.0744   16.0157 C   0  0  0  0  0  0  0  0  0  0  0  0
   15.8195   -8.4820   18.2941 N   0  0  0  0  0  0  0  0  0  0  0  0
   14.6737   -7.6797   17.9768 C   0  0  0  0  0  0  0  0  0  0  0  0
   14.2041   -7.6525   16.8073 O   0  0  0  0  0  0  0  0  0  0  0  0
   16.1348   -8.4510   19.2262 H   0  0  0  0  0  0  0  0  0  0  0  0
   14.0443   -6.8801   19.0327 C   0  0  0  0  0  0  0  0  0  0  0  0
   12.9540   -6.0514   18.8698 C   0  0  0  0  0  0  0  0  0  0  0  0
   12.7256   -5.5173   20.1260 C   0  0  0  0  0  0  0  0  0  0  0  0
   13.6866   -6.0543   20.9654 C   0  0  0  0  0  0  0  0  0  0  0  0
   14.4545   -6.8623   20.2751 O   0  0  0  0  0  0  0  0  0  0  0  0
   17.3509   -9.6317   13.7953 O   0  0  0  0  0  0  0  0  0  0  0  0
   17.9275  -10.5123   12.8398 C   0  0  0  0  0  0  0  0  0  0  0  0
   20.5158   -7.7392    9.4438 C   0  0  0  0  0  0  0  0  0  0  0  0
   19.1898   -8.0604    8.8422 C   0  0  0  0  0  0  0  0  0  0  0  0
   18.8945   -7.5912    7.5637 C   0  0  0  0  0  0  0  0  0  0  0  0
   17.6627   -7.8803    6.9829 C   0  0  0  0  0  0  0  0  0  0  0  0
   16.7340   -8.6407    7.6929 C   0  0  0  0  0  0  0  0  0  0  0  0
   17.0177   -9.1041    8.9465 N   0  0  0  0  0  0  0  0  0  0  0  0
   16.0881   -9.8470    9.6249 C   0  0  0  0  0  0  0  0  0  0  0  0
   14.9670  -10.1108    9.1098 O   0  0  0  0  0  0  0  0  0  0  0  0
   16.3703  -10.3246   10.9030 C   0  0  0  0  0  0  0  0  0  0  0  0
   17.6083  -10.0380   11.4676 C   0  0  0  0  0  0  0  0  0  0  0  0
   18.5089   -9.2923   10.7809 N   0  0  0  0  0  0  0  0  0  0  0  0
   18.2342   -8.8254    9.5324 C   0  0  0  0  0  0  0  0  0  0  0  0
 18 19  1  0  0  0
 19 20  2  0  0  0
 20 21  1  0  0  0
 21 22  2  0  0  0
 22 23  1  0  0  0
 23 24  1  0  0  0
 24 25  2  0  0  0
 24 26  1  0  0  0
 26 27  2  0  0  0
 27 17  1  0  0  0
 27 28  1  0  0  0
 17 16  1  0  0  0
 16  1  1  0  0  0
  1  2  2  0  0  0
  2  3  1  0  0  0
  3  4  2  0  0  0
  4  5  1  0  0  0
  5  7  1  0  0  0
  5  6  2  0  0  0
  7  8  1  0  0  0
  8  9  2  0  0  0
  8 11  1  0  0  0
 11 12  2  0  0  0
 12 13  1  0  0  0
 13 14  2  0  0  0
 14 15  1  0  0  0
 15 11  1  0  0  0
  6  1  1  0  0  0
 28 29  2  0  0  0
 29 19  1  0  0  0
 29 23  1  0  0  0
  7 10  1  0  0  0
M  END
>  <minimizedAffinity>
-7.00632

>  <minimizedRMSD>
0.92646

$$$$
ChemDiv-S021-2257 MolPort-035-696-178 PubChem-87052501 ZINC000097942028 ZINC97942028


 35 39  0  0  0  0  0  0  0  0999 V2000
   17.8640  -10.3746   13.0847 C   0  0  0  0  0  0  0  0  0  0  0  0
   17.2164  -11.3513   13.5518 O   0  0  0  0  0  0  0  0  0  0  0  0
   17.8303  -10.0941   11.6766 N   0  0  0  0  0  0  0  0  0  0  0  0
   17.0857  -10.9984   10.7948 C   0  0  0  0  0  0  0  0  0  0  0  0
   16.3936  -10.2047    9.6976 C   0  0  0  0  0  0  0  0  0  0  0  0
   17.4204   -9.4164    8.9482 C   0  0  0  0  0  0  0  0  0  0  0  0
   18.5002   -8.8223    9.6470 C   0  0  0  0  0  0  0  0  0  0  0  0
   18.6298   -8.9807   11.1382 C   0  0  0  0  0  0  0  0  0  0  0  0
   19.4366   -8.0915    8.9715 N   0  0  0  0  0  0  0  0  0  0  0  0
   19.3289   -7.9639    7.6254 C   0  0  0  0  0  0  0  0  0  0  0  0
   20.1705   -7.2752    6.7773 C   0  0  0  0  0  0  0  0  0  0  0  0
   19.5637   -7.5082    5.5347 C   0  0  0  0  0  0  0  0  0  0  0  0
   18.4509   -8.2732    5.6604 N   0  0  0  0  0  0  0  0  0  0  0  0
   18.3307   -8.5382    6.9472 N   0  0  0  0  0  0  0  0  0  0  0  0
   17.3580   -9.2658    7.5519 C   0  0  0  0  0  0  0  0  0  0  0  0
   16.4251   -9.7833    6.8781 O   0  0  0  0  0  0  0  0  0  0  0  0
   17.8532   -8.5708    4.9370 H   0  0  0  0  0  0  0  0  0  0  0  0
   20.0498   -6.9934    4.2416 C   0  0  0  0  0  0  0  0  0  0  0  0
   19.4462   -7.4106    3.0461 C   0  0  0  0  0  0  0  0  0  0  0  0
   19.9016   -6.9267    1.8154 C   0  0  0  0  0  0  0  0  0  0  0  0
   20.9650   -6.0230    1.7711 C   0  0  0  0  0  0  0  0  0  0  0  0
   21.5748   -5.6045    2.9573 C   0  0  0  0  0  0  0  0  0  0  0  0
   21.1186   -6.0878    4.1885 C   0  0  0  0  0  0  0  0  0  0  0  0
   18.6420   -9.5082   14.0269 C   0  0  0  0  0  0  0  0  0  0  0  0
   16.1809   -8.4532   17.3969 C   0  0  0  0  0  0  0  0  0  0  0  0
   15.9146   -7.9134   16.1270 C   0  0  0  0  0  0  0  0  0  0  0  0
   16.7198   -8.2483   15.0323 C   0  0  0  0  0  0  0  0  0  0  0  0
   17.8015   -9.1220   15.1997 C   0  0  0  0  0  0  0  0  0  0  0  0
   18.0709   -9.6626   16.4635 C   0  0  0  0  0  0  0  0  0  0  0  0
   17.2650   -9.3258   17.5571 C   0  0  0  0  0  0  0  0  0  0  0  0
   13.5013   -7.0772   19.8496 C   0  0  0  0  0  0  0  0  0  0  0  0
   14.1407   -7.4137   18.5504 C   0  0  0  0  0  0  0  0  0  0  0  0
   13.5715   -7.0825   17.4764 O   0  0  0  0  0  0  0  0  0  0  0  0
   15.3860   -8.1229   18.5456 N   0  0  0  0  0  0  0  0  0  0  0  0
   15.7320   -8.4136   19.4203 H   0  0  0  0  0  0  0  0  0  0  0  0
 31 32  1  0  0  0
 32 33  2  0  0  0
 32 34  1  0  0  0
 34 25  1  0  0  0
 25 26  2  0  0  0
 26 27  1  0  0  0
 27 28  2  0  0  0
 28 24  1  0  0  0
 28 29  1  0  0  0
 24  1  1  0  0  0
  1  2  2  0  0  0
  1  3  1  0  0  0
  3  4  1  0  0  0
  4  5  1  0  0  0
  5  6  1  0  0  0
  6  7  2  0  0  0
  7  8  1  0  0  0
  7  9  1  0  0  0
  8  3  1  0  0  0
  9 10  2  0  0  0
 10 11  1  0  0  0
 11 12  2  0  0  0
 12 13  1  0  0  0
 12 18  1  0  0  0
 13 14  1  0  0  0
 14 15  1  0  0  0
 14 10  1  0  0  0
 15 16  2  0  0  0
 15  6  1  0  0  0
 18 19  2  0  0  0
 19 20  1  0  0  0
 20 21  2  0  0  0
 21 22  1  0  0  0
 22 23  2  0  0  0
 23 18  1  0  0  0
 29 30  2  0  0  0
 30 25  1  0  0  0
 34 35  1  0  0  0
 13 17  1  0  0  0
M  END
>  <minimizedAffinity>
-6.99204

>  <minimizedRMSD>
1.52670

$$$$
ChemDiv-G357-4005 CHEMBL2142022 MCULE-9810773170 MolPort-007-848-112 PubChem-16027393 ZINC000008606923


 35 38  0  0  0  0  0  0  0  0999 V2000
   17.4563   -9.2168   15.3510 C   0  0  0  0  0  0  0  0  0  0  0  0
   18.6539   -9.4688   15.6623 O   0  0  0  0  0  0  0  0  0  0  0  0
   16.5183   -8.7211   16.3700 C   0  0  0  0  0  0  0  0  0  0  0  0
   16.7867   -8.8968   17.7348 C   0  0  0  0  0  0  0  0  0  0  0  0
   15.8914   -8.4208   18.6973 C   0  0  0  0  0  0  0  0  0  0  0  0
   14.7175   -7.7661   18.3100 C   0  0  0  0  0  0  0  0  0  0  0  0
   14.4493   -7.5896   16.9446 C   0  0  0  0  0  0  0  0  0  0  0  0
   15.3436   -8.0642   15.9815 C   0  0  0  0  0  0  0  0  0  0  0  0
   13.8283   -7.2828   19.3260 N   0  0  0  0  0  0  0  0  0  0  0  0
   14.1680   -6.9642   20.6840 C   0  0  0  0  0  0  0  0  0  0  0  0
   15.3560   -7.0524   21.0925 O   0  0  0  0  0  0  0  0  0  0  0  0
   12.8874   -7.1564   19.0652 H   0  0  0  0  0  0  0  0  0  0  0  0
   13.1056   -6.5304   21.6468 C   0  0  0  0  0  0  0  0  0  0  0  0
   13.6637   -6.1602   23.0272 C   0  0  0  0  0  0  0  0  0  0  0  0
   14.3157   -4.7773   23.0281 C   0  0  0  0  0  0  0  0  0  0  0  0
   13.3348   -3.7261   22.5215 C   0  0  0  0  0  0  0  0  0  0  0  0
   12.9008   -4.0642   21.0999 C   0  0  0  0  0  0  0  0  0  0  0  0
   12.2108   -5.4267   21.0705 C   0  0  0  0  0  0  0  0  0  0  0  0
   17.0164   -9.3994   14.0379 O   0  0  0  0  0  0  0  0  0  0  0  0
   17.5416  -10.4212   13.2036 C   0  0  0  0  0  0  0  0  0  0  0  0
   17.4108   -9.0935    9.2043 N   0  0  0  0  0  0  0  0  0  0  0  0
   17.5086   -8.5992    7.9726 N   0  0  0  0  0  0  0  0  0  0  0  0
   18.6530   -7.8962    7.7972 C   0  0  0  0  0  0  0  0  0  0  0  0
   19.5986   -7.8516    9.2067 S   0  0  0  0  0  0  0  0  0  0  0  0
   18.4544   -8.7871   10.0033 C   0  0  0  0  0  0  0  0  0  0  0  0
   18.5162   -9.2107   11.2891 N   0  0  0  0  0  0  0  0  0  0  0  0
   17.5030   -9.9741   11.7862 C   0  0  0  0  0  0  0  0  0  0  0  0
   16.3992  -10.3006   10.9810 C   0  0  0  0  0  0  0  0  0  0  0  0
   16.3720   -9.8419    9.6596 C   0  0  0  0  0  0  0  0  0  0  0  0
   15.3978  -10.1195    8.9114 O   0  0  0  0  0  0  0  0  0  0  0  0
   19.0067   -7.2166    6.5188 C   0  0  0  0  0  0  0  0  0  0  0  0
   19.2719   -8.2365    5.4237 C   0  0  0  0  0  0  0  0  0  0  0  0
   19.3878   -7.5951    4.1892 O   0  0  0  0  0  0  0  0  0  0  0  0
   20.6119   -8.0308    3.6796 C   0  0  0  0  0  0  0  0  0  0  0  0
   21.7242   -7.1475    4.2079 C   0  0  0  0  0  0  0  0  0  0  0  0
 21 22  1  0  0  0
 22 23  2  0  0  0
 23 24  1  0  0  0
 24 25  1  0  0  0
 25 26  2  0  0  0
 26 27  1  0  0  0
 27 20  1  0  0  0
 20 19  1  0  0  0
 19  1  1  0  0  0
  1  2  2  0  0  0
  1  3  1  0  0  0
  3  4  2  0  0  0
  4  5  1  0  0  0
  5  6  2  0  0  0
  6  7  1  0  0  0
  7  8  2  0  0  0
  6  9  1  0  0  0
  9 10  1  0  0  0
 10 13  1  0  0  0
 13 14  1  0  0  0
 14 15  1  0  0  0
 15 16  1  0  0  0
 16 17  1  0  0  0
 17 18  1  0  0  0
 10 11  2  0  0  0
 27 28  2  0  0  0
 28 29  1  0  0  0
 29 30  2  0  0  0
 23 31  1  0  0  0
 31 32  1  0  0  0
 32 33  1  0  0  0
 33 34  1  0  0  0
 34 35  1  0  0  0
 25 21  1  0  0  0
  8  3  1  0  0  0
 18 13  1  0  0  0
 29 21  1  0  0  0
  9 12  1  0  0  0
M  END
>  <minimizedAffinity>
-6.97769

>  <minimizedRMSD>
3.32191

$$$$
ChemDiv-G355-2360 MCULE-1395618492 MolPort-010-840-363 PubChem-52096613 ZINC000041077364 ZINC41077364


 32 35  0  0  0  0  0  0  0  0999 V2000
   16.0798   -8.8475   16.9865 C   0  0  0  0  0  0  0  0  0  0  0  0
   16.5820   -9.9785   17.6301 C   0  0  0  0  0  0  0  0  0  0  0  0
   17.2699  -10.9532   16.9072 C   0  0  0  0  0  0  0  0  0  0  0  0
   17.4690  -10.8131   15.5303 C   0  0  0  0  0  0  0  0  0  0  0  0
   18.2119  -11.9049   14.8405 C   0  0  0  0  0  0  0  0  0  0  0  0
   16.9659   -9.6653   14.8624 C   0  0  0  0  0  0  0  0  0  0  0  0
   16.2780   -8.7007   15.6076 C   0  0  0  0  0  0  0  0  0  0  0  0
   13.9710   -7.8010   18.0135 C   0  0  0  0  0  0  0  0  0  0  0  0
   13.2106   -8.7066   17.5733 O   0  0  0  0  0  0  0  0  0  0  0  0
   15.3833   -7.8637   17.7632 N   0  0  0  0  0  0  0  0  0  0  0  0
   15.9330   -7.1546   18.1687 H   0  0  0  0  0  0  0  0  0  0  0  0
   13.8025   -6.3802   20.1222 C   0  0  0  0  0  0  0  0  0  0  0  0
   13.3892   -6.6858   18.8017 C   0  0  0  0  0  0  0  0  0  0  0  0
   12.3881   -5.9015   18.2048 C   0  0  0  0  0  0  0  0  0  0  0  0
   11.8008   -4.8385   18.8914 C   0  0  0  0  0  0  0  0  0  0  0  0
   12.2075   -4.5406   20.1903 C   0  0  0  0  0  0  0  0  0  0  0  0
   13.2010   -5.3059   20.8008 C   0  0  0  0  0  0  0  0  0  0  0  0
   15.6506   -6.6095   21.7602 C   0  0  0  0  0  0  0  0  0  0  0  0
   14.8036   -7.1344   20.7464 O   0  0  0  0  0  0  0  0  0  0  0  0
   17.1078   -9.4136   13.4882 O   0  0  0  0  0  0  0  0  0  0  0  0
   18.2897   -9.6195   12.7286 C   0  0  0  0  0  0  0  0  0  0  0  0
   17.9762   -9.5034   11.2800 C   0  0  0  0  0  0  0  0  0  0  0  0
   16.7585   -9.9975   10.7875 C   0  0  0  0  0  0  0  0  0  0  0  0
   16.4713   -9.8453    9.4268 C   0  0  0  0  0  0  0  0  0  0  0  0
   15.3870  -10.2835    8.9573 O   0  0  0  0  0  0  0  0  0  0  0  0
   17.3778   -9.2178    8.6288 N   0  0  0  0  0  0  0  0  0  0  0  0
   17.2508   -8.9885    7.2944 C   0  0  0  0  0  0  0  0  0  0  0  0
   18.3469   -8.3186    6.7556 C   0  0  0  0  0  0  0  0  0  0  0  0
   18.4921   -7.9315    5.3283 C   0  0  0  0  0  0  0  0  0  0  0  0
   19.4904   -8.0087    7.9635 S   0  0  0  0  0  0  0  0  0  0  0  0
   18.5393   -8.7450    9.1333 C   0  0  0  0  0  0  0  0  0  0  0  0
   18.8508   -8.8743   10.4461 N   0  0  0  0  0  0  0  0  0  0  0  0
 18 19  1  0  0  0
 19 12  1  0  0  0
 12 13  2  0  0  0
 13 14  1  0  0  0
 13  8  1  0  0  0
 14 15  2  0  0  0
 15 16  1  0  0  0
 16 17  2  0  0  0
 17 12  1  0  0  0
  8  9  2  0  0  0
  8 10  1  0  0  0
 10  1  1  0  0  0
  1  2  2  0  0  0
  2  3  1  0  0  0
  3  4  2  0  0  0
  4  5  1  0  0  0
  4  6  1  0  0  0
  6 20  1  0  0  0
  6  7  2  0  0  0
 20 21  1  0  0  0
 21 22  1  0  0  0
 22 23  2  0  0  0
 23 24  1  0  0  0
 24 25  2  0  0  0
 24 26  1  0  0  0
 26 27  1  0  0  0
 27 28  2  0  0  0
 28 29  1  0  0  0
 28 30  1  0  0  0
 30 31  1  0  0  0
 31 32  2  0  0  0
 31 26  1  0  0  0
 32 22  1  0  0  0
  7  1  1  0  0  0
 10 11  1  0  0  0
M  END
>  <minimizedAffinity>
-6.97168

>  <minimizedRMSD>
1.30931

$$$$
ChemDiv-G756-0424 MCULE-8575898601 MolPort-007-879-150 PubChem-46356017 ZINC000021156748 ZINC21156748


 36 39  0  0  0  0  0  0  0  0999 V2000
   16.9729   -9.2446   16.5090 C   0  0  0  0  0  0  0  0  0  0  0  0
   18.1605   -9.9719   16.5951 C   0  0  0  0  0  0  0  0  0  0  0  0
   18.8081  -10.4036   15.4369 C   0  0  0  0  0  0  0  0  0  0  0  0
   18.2784  -10.1166   14.1746 C   0  0  0  0  0  0  0  0  0  0  0  0
   19.0496  -10.5952   12.9932 C   0  0  0  0  0  0  0  0  0  0  0  0
   17.0714   -9.3762   14.0722 C   0  0  0  0  0  0  0  0  0  0  0  0
   16.4412   -8.9500   15.2467 C   0  0  0  0  0  0  0  0  0  0  0  0
   14.6231   -7.7300   19.1258 N   0  0  0  0  0  0  0  0  0  0  0  0
   15.0858   -8.1220   17.8296 C   0  0  0  0  0  0  0  0  0  0  0  0
   14.3736   -7.9106   16.8109 O   0  0  0  0  0  0  0  0  0  0  0  0
   16.3385   -8.8103   17.7195 N   0  0  0  0  0  0  0  0  0  0  0  0
   15.1003   -8.0951   19.9056 H   0  0  0  0  0  0  0  0  0  0  0  0
   16.8115   -9.0046   18.5607 H   0  0  0  0  0  0  0  0  0  0  0  0
   11.4313   -5.0335   19.8862 C   0  0  0  0  0  0  0  0  0  0  0  0
   11.1467   -6.3442   19.4953 C   0  0  0  0  0  0  0  0  0  0  0  0
   12.1793   -7.2590   19.2266 C   0  0  0  0  0  0  0  0  0  0  0  0
   13.5213   -6.8491   19.3815 C   0  0  0  0  0  0  0  0  0  0  0  0
   13.8019   -5.5274   19.7430 C   0  0  0  0  0  0  0  0  0  0  0  0
   12.7678   -4.6253   19.9987 C   0  0  0  0  0  0  0  0  0  0  0  0
   10.4499   -3.1242   21.1162 C   0  0  0  0  0  0  0  0  0  0  0  0
   10.3720   -4.1598   20.1461 O   0  0  0  0  0  0  0  0  0  0  0  0
   11.8870   -8.5519   18.7751 O   0  0  0  0  0  0  0  0  0  0  0  0
   10.5639   -8.9962   18.5046 C   0  0  0  0  0  0  0  0  0  0  0  0
   16.4521   -9.0235   12.8632 O   0  0  0  0  0  0  0  0  0  0  0  0
   15.9621   -9.9355   11.8904 C   0  0  0  0  0  0  0  0  0  0  0  0
   16.6009   -9.6511   10.5786 C   0  0  0  0  0  0  0  0  0  0  0  0
   16.1040  -10.2402    9.4193 C   0  0  0  0  0  0  0  0  0  0  0  0
   16.6971   -9.9250    8.1981 C   0  0  0  0  0  0  0  0  0  0  0  0
   16.2524  -10.4632    7.1467 O   0  0  0  0  0  0  0  0  0  0  0  0
   17.7431   -9.0425    8.1495 N   0  0  0  0  0  0  0  0  0  0  0  0
   18.3156   -8.7261    6.9499 C   0  0  0  0  0  0  0  0  0  0  0  0
   19.3781   -7.8231    6.8816 C   0  0  0  0  0  0  0  0  0  0  0  0
   19.8567   -7.2412    8.0544 C   0  0  0  0  0  0  0  0  0  0  0  0
   19.2723   -7.5642    9.2776 C   0  0  0  0  0  0  0  0  0  0  0  0
   18.2105   -8.4709    9.3129 C   0  0  0  0  0  0  0  0  0  0  0  0
   17.6358   -8.7767   10.5047 N   0  0  0  0  0  0  0  0  0  0  0  0
 20 21  1  0  0  0
 21 14  1  0  0  0
 14 15  2  0  0  0
 15 16  1  0  0  0
 16 22  1  0  0  0
 16 17  2  0  0  0
 22 23  1  0  0  0
 17  8  1  0  0  0
 17 18  1  0  0  0
  8  9  1  0  0  0
  9 10  2  0  0  0
  9 11  1  0  0  0
 11  1  1  0  0  0
  1  2  2  0  0  0
  2  3  1  0  0  0
  3  4  2  0  0  0
  4  5  1  0  0  0
  4  6  1  0  0  0
  6 24  1  0  0  0
  6  7  2  0  0  0
 24 25  1  0  0  0
 25 26  1  0  0  0
 26 27  2  0  0  0
 27 28  1  0  0  0
 28 29  2  0  0  0
 28 30  1  0  0  0
 30 31  1  0  0  0
 31 32  2  0  0  0
 32 33  1  0  0  0
 33 34  2  0  0  0
 34 35  1  0  0  0
 35 36  2  0  0  0
 35 30  1  0  0  0
 36 26  1  0  0  0
  7  1  1  0  0  0
 18 19  2  0  0  0
 19 14  1  0  0  0
  8 12  1  0  0  0
 11 13  1  0  0  0
M  END
>  <minimizedAffinity>
-6.95375

>  <minimizedRMSD>
2.76936

$$$$
ChemDiv-C679-5550 MCULE-1578869977 MolPort-010-797-244 PubChem-52096633 ZINC000041077402 ZINC41077402


 26 28  0  0  0  0  0  0  0  0999 V2000
   16.9590  -10.0993   16.4568 C   0  0  0  0  0  0  0  0  0  0  0  0
   16.8669   -9.6578   15.1280 C   0  0  0  0  0  0  0  0  0  0  0  0
   17.4293  -10.4033   14.0871 C   0  0  0  0  0  0  0  0  0  0  0  0
   18.0915  -11.6057   14.3809 C   0  0  0  0  0  0  0  0  0  0  0  0
   18.1864  -12.0514   15.7013 C   0  0  0  0  0  0  0  0  0  0  0  0
   17.6212  -11.2995   16.7347 C   0  0  0  0  0  0  0  0  0  0  0  0
   15.5580   -8.1947   17.4463 C   0  0  0  0  0  0  0  0  0  0  0  0
   15.2668   -7.6915   16.3281 O   0  0  0  0  0  0  0  0  0  0  0  0
   16.3903   -9.3574   17.5443 N   0  0  0  0  0  0  0  0  0  0  0  0
   16.5925   -9.6801   18.4522 H   0  0  0  0  0  0  0  0  0  0  0  0
   15.0430   -7.5634   18.6962 C   0  0  0  0  0  0  0  0  0  0  0  0
   12.7638   -7.7542   19.6961 C   0  0  0  0  0  0  0  0  0  0  0  0
   13.5789   -7.1773   18.5537 C   0  0  0  0  0  0  0  0  0  0  0  0
   17.3162   -9.9291   12.7778 O   0  0  0  0  0  0  0  0  0  0  0  0
   18.3397   -9.1733   12.1438 C   0  0  0  0  0  0  0  0  0  0  0  0
   18.1344   -9.1929   10.6716 C   0  0  0  0  0  0  0  0  0  0  0  0
   17.0635   -9.9178   10.1261 C   0  0  0  0  0  0  0  0  0  0  0  0
   16.8746   -9.8991    8.7401 C   0  0  0  0  0  0  0  0  0  0  0  0
   15.9231  -10.5444    8.2238 O   0  0  0  0  0  0  0  0  0  0  0  0
   17.7306   -9.1750    7.9686 N   0  0  0  0  0  0  0  0  0  0  0  0
   17.6839   -9.0518    6.6151 C   0  0  0  0  0  0  0  0  0  0  0  0
   18.6965   -8.2377    6.1125 C   0  0  0  0  0  0  0  0  0  0  0  0
   18.8990   -7.9184    4.6756 C   0  0  0  0  0  0  0  0  0  0  0  0
   19.6627   -7.6631    7.3772 S   0  0  0  0  0  0  0  0  0  0  0  0
   18.7489   -8.4799    8.5233 C   0  0  0  0  0  0  0  0  0  0  0  0
   18.9619   -8.4746    9.8619 N   0  0  0  0  0  0  0  0  0  0  0  0
 12 13  1  0  0  0
 13 11  1  0  0  0
 11  7  1  0  0  0
  7  8  2  0  0  0
  7  9  1  0  0  0
  9  1  1  0  0  0
  1  2  2  0  0  0
  2  3  1  0  0  0
  3 14  1  0  0  0
  3  4  2  0  0  0
 14 15  1  0  0  0
 15 16  1  0  0  0
 16 17  2  0  0  0
 17 18  1  0  0  0
 18 19  2  0  0  0
 18 20  1  0  0  0
 20 21  1  0  0  0
 21 22  2  0  0  0
 22 23  1  0  0  0
 22 24  1  0  0  0
 24 25  1  0  0  0
 25 26  2  0  0  0
 25 20  1  0  0  0
 26 16  1  0  0  0
  4  5  1  0  0  0
  5  6  2  0  0  0
  6  1  1  0  0  0
  9 10  1  0  0  0
M  END
>  <minimizedAffinity>
-6.93057

>  <minimizedRMSD>
0.94024

$$$$
ChemDiv-G756-0548 MCULE-2205666098 MolPort-007-879-259 PubChem-22580450 ZINC000021099804 ZINC21099804


 29 32  0  0  0  0  0  0  0  0999 V2000
   17.3109   -9.9292   15.1637 C   0  0  0  0  0  0  0  0  0  0  0  0
   18.0057  -11.0266   15.6961 C   0  0  0  0  0  0  0  0  0  0  0  0
   17.9736  -11.2796   17.0695 C   0  0  0  0  0  0  0  0  0  0  0  0
   17.2481  -10.4390   17.9178 C   0  0  0  0  0  0  0  0  0  0  0  0
   16.5511   -9.3419   17.4012 C   0  0  0  0  0  0  0  0  0  0  0  0
   16.5877   -9.0937   16.0206 C   0  0  0  0  0  0  0  0  0  0  0  0
   15.8183   -8.5030   18.3043 N   0  0  0  0  0  0  0  0  0  0  0  0
   14.6761   -7.6933   17.9906 C   0  0  0  0  0  0  0  0  0  0  0  0
   14.2073   -7.6606   16.8212 O   0  0  0  0  0  0  0  0  0  0  0  0
   16.1318   -8.4802   19.2373 H   0  0  0  0  0  0  0  0  0  0  0  0
   14.0452   -6.8923   19.0455 C   0  0  0  0  0  0  0  0  0  0  0  0
   14.4485   -6.8382   20.3705 C   0  0  0  0  0  0  0  0  0  0  0  0
   13.6512   -5.9838   21.1461 C   0  0  0  0  0  0  0  0  0  0  0  0
   12.6207   -5.3620   20.4444 C   0  0  0  0  0  0  0  0  0  0  0  0
   12.7157   -5.8891   18.8497 S   0  0  0  0  0  0  0  0  0  0  0  0
   17.3223   -9.6477   13.7952 O   0  0  0  0  0  0  0  0  0  0  0  0
   17.9283  -10.5080   12.8395 C   0  0  0  0  0  0  0  0  0  0  0  0
   20.5076   -7.7361    9.4361 C   0  0  0  0  0  0  0  0  0  0  0  0
   19.1796   -8.0564    8.8385 C   0  0  0  0  0  0  0  0  0  0  0  0
   18.8795   -7.5844    7.5621 C   0  0  0  0  0  0  0  0  0  0  0  0
   17.6454   -7.8716    6.9854 C   0  0  0  0  0  0  0  0  0  0  0  0
   16.7187   -8.6327    7.6976 C   0  0  0  0  0  0  0  0  0  0  0  0
   17.0070   -9.0986    8.9493 N   0  0  0  0  0  0  0  0  0  0  0  0
   16.0792   -9.8414    9.6302 C   0  0  0  0  0  0  0  0  0  0  0  0
   14.9558  -10.1035    9.1189 O   0  0  0  0  0  0  0  0  0  0  0  0
   16.3652  -10.3201   10.9072 C   0  0  0  0  0  0  0  0  0  0  0  0
   17.6054  -10.0350   11.4676 C   0  0  0  0  0  0  0  0  0  0  0  0
   18.5045   -9.2898   10.7782 N   0  0  0  0  0  0  0  0  0  0  0  0
   18.2261   -8.8219    9.5310 C   0  0  0  0  0  0  0  0  0  0  0  0
 18 19  1  0  0  0
 19 20  2  0  0  0
 20 21  1  0  0  0
 21 22  2  0  0  0
 22 23  1  0  0  0
 23 24  1  0  0  0
 24 25  2  0  0  0
 24 26  1  0  0  0
 26 27  2  0  0  0
 27 17  1  0  0  0
 27 28  1  0  0  0
 17 16  1  0  0  0
 16  1  1  0  0  0
  1  2  2  0  0  0
  2  3  1  0  0  0
  3  4  2  0  0  0
  4  5  1  0  0  0
  5  7  1  0  0  0
  5  6  2  0  0  0
  7  8  1  0  0  0
  8  9  2  0  0  0
  8 11  1  0  0  0
 11 12  2  0  0  0
 12 13  1  0  0  0
 13 14  2  0  0  0
 14 15  1  0  0  0
 15 11  1  0  0  0
  6  1  1  0  0  0
 28 29  2  0  0  0
 29 19  1  0  0  0
 29 23  1  0  0  0
  7 10  1  0  0  0
M  END
>  <minimizedAffinity>
-6.92382

>  <minimizedRMSD>
0.93518

$$$$
ChemDiv-D483-1390 MCULE-6209887661 MolPort-007-710-922 PubChem-20899052 ZINC000015859214


 33 36  0  0  0  0  0  0  0  0999 V2000
   16.4278   -9.6619   13.1658 C   0  0  0  0  0  0  0  0  0  0  0  0
   15.7924   -8.4753   13.2374 N   0  0  0  0  0  0  0  0  0  0  0  0
   16.1331   -7.9237   14.3948 N   0  0  0  0  0  0  0  0  0  0  0  0
   16.9680   -8.7850   15.0073 C   0  0  0  0  0  0  0  0  0  0  0  0
   17.1737   -9.8829   14.2612 N   0  0  0  0  0  0  0  0  0  0  0  0
   17.9841  -11.0471   14.5807 C   0  0  0  0  0  0  0  0  0  0  0  0
   16.3060  -10.6069   12.0129 C   0  0  0  0  0  0  0  0  0  0  0  0
   18.3597   -8.7973    9.4063 N   0  0  0  0  0  0  0  0  0  0  0  0
   19.6106   -8.2625    9.2702 C   0  0  0  0  0  0  0  0  0  0  0  0
   20.0043   -7.6559    8.0763 C   0  0  0  0  0  0  0  0  0  0  0  0
   19.1062   -7.5977    7.0129 C   0  0  0  0  0  0  0  0  0  0  0  0
   17.8315   -8.1430    7.1513 C   0  0  0  0  0  0  0  0  0  0  0  0
   17.4683   -8.7436    8.3590 C   0  0  0  0  0  0  0  0  0  0  0  0
   16.2266   -9.2735    8.4889 N   0  0  0  0  0  0  0  0  0  0  0  0
   15.8273   -9.8669    9.6405 C   0  0  0  0  0  0  0  0  0  0  0  0
   14.4468  -10.4258    9.7174 C   0  0  0  0  0  0  0  0  0  0  0  0
   16.7086   -9.9375   10.7298 C   0  0  0  0  0  0  0  0  0  0  0  0
   17.9930   -9.3871   10.5865 C   0  0  0  0  0  0  0  0  0  0  0  0
   18.8052   -9.4396   11.5536 O   0  0  0  0  0  0  0  0  0  0  0  0
   19.5064   -6.9552    5.7342 C   0  0  0  0  0  0  0  0  0  0  0  0
   17.6945   -8.4917   16.6196 S   0  0  0  0  0  0  0  0  0  0  0  0
   16.2687   -9.1974   17.5047 C   0  0  0  0  0  0  0  0  0  0  0  0
   15.4183   -8.1180   18.0802 C   0  0  0  0  0  0  0  0  0  0  0  0
   14.8472   -7.3073   17.3038 O   0  0  0  0  0  0  0  0  0  0  0  0
   15.2503   -8.0316   19.5015 N   0  0  0  0  0  0  0  0  0  0  0  0
   15.6953   -8.7240   20.0417 H   0  0  0  0  0  0  0  0  0  0  0  0
   14.5007   -7.0406   20.2170 C   0  0  0  0  0  0  0  0  0  0  0  0
   15.0081   -6.5578   21.4284 C   0  0  0  0  0  0  0  0  0  0  0  0
   14.3076   -5.5887   22.1531 C   0  0  0  0  0  0  0  0  0  0  0  0
   13.0933   -5.0956   21.6684 C   0  0  0  0  0  0  0  0  0  0  0  0
   12.5803   -5.5704   20.4587 C   0  0  0  0  0  0  0  0  0  0  0  0
   13.2817   -6.5390   19.7350 C   0  0  0  0  0  0  0  0  0  0  0  0
   12.2163   -3.8829   22.5756 Cl  0  0  0  0  0  0  0  0  0  0  0  0
  8  9  1  0  0  0
  9 10  2  0  0  0
 10 11  1  0  0  0
 11 12  2  0  0  0
 12 13  1  0  0  0
 13 14  2  0  0  0
 14 15  1  0  0  0
 15 16  1  0  0  0
 15 17  2  0  0  0
 17  7  1  0  0  0
  7  1  1  0  0  0
  1  2  2  0  0  0
  2  3  1  0  0  0
  3  4  2  0  0  0
  4 21  1  0  0  0
 21 22  1  0  0  0
 22 23  1  0  0  0
 23 24  2  0  0  0
 23 25  1  0  0  0
 25 27  1  0  0  0
 27 28  2  0  0  0
 28 29  1  0  0  0
 29 30  2  0  0  0
 30 31  1  0  0  0
 31 32  2  0  0  0
 30 33  1  0  0  0
  4  5  1  0  0  0
  5  6  1  0  0  0
 17 18  1  0  0  0
 18 19  2  0  0  0
 11 20  1  0  0  0
 13  8  1  0  0  0
  5  1  1  0  0  0
 18  8  1  0  0  0
 32 27  1  0  0  0
 25 26  1  0  0  0
M  END
>  <minimizedAffinity>
-6.91760

>  <minimizedRMSD>
2.89910

$$$$
ChemDiv-C679-4695 MCULE-3003346739 MolPort-007-655-965 PubChem-20874302 ZINC000009858756


 31 34  0  0  0  0  0  0  0  0999 V2000
   16.8208   -9.1594   13.7034 O   0  0  0  0  0  0  0  0  0  0  0  0
   16.6860   -9.2323   15.0922 C   0  0  0  0  0  0  0  0  0  0  0  0
   17.2909  -10.2555   15.8388 C   0  0  0  0  0  0  0  0  0  0  0  0
   17.1346  -10.3002   17.2261 C   0  0  0  0  0  0  0  0  0  0  0  0
   16.3755   -9.3229   17.8754 C   0  0  0  0  0  0  0  0  0  0  0  0
   15.7692   -8.2960   17.1448 C   0  0  0  0  0  0  0  0  0  0  0  0
   15.9286   -8.2585   15.7510 C   0  0  0  0  0  0  0  0  0  0  0  0
   14.9923   -7.3162   17.8467 N   0  0  0  0  0  0  0  0  0  0  0  0
   13.5915   -7.3847   18.1474 C   0  0  0  0  0  0  0  0  0  0  0  0
   12.8922   -8.3616   17.7643 O   0  0  0  0  0  0  0  0  0  0  0  0
   15.4704   -6.5125   18.1545 H   0  0  0  0  0  0  0  0  0  0  0  0
   12.9686   -6.2989   18.9117 C   0  0  0  0  0  0  0  0  0  0  0  0
   11.9368   -5.4967   18.4717 C   0  0  0  0  0  0  0  0  0  0  0  0
   11.6908   -4.6296   19.5223 C   0  0  0  0  0  0  0  0  0  0  0  0
   12.5840   -4.9608   20.5267 C   0  0  0  0  0  0  0  0  0  0  0  0
   13.3289   -5.9617   20.1236 O   0  0  0  0  0  0  0  0  0  0  0  0
   17.7973   -9.9038   12.9868 C   0  0  0  0  0  0  0  0  0  0  0  0
   17.2473   -9.2575    8.8563 N   0  0  0  0  0  0  0  0  0  0  0  0
   17.2092   -8.9653    7.5586 N   0  0  0  0  0  0  0  0  0  0  0  0
   18.3196   -8.3014    7.1543 C   0  0  0  0  0  0  0  0  0  0  0  0
   19.4030   -8.0296    8.4326 S   0  0  0  0  0  0  0  0  0  0  0  0
   18.3619   -8.8254    9.4835 C   0  0  0  0  0  0  0  0  0  0  0  0
   18.5586   -9.0289   10.8088 N   0  0  0  0  0  0  0  0  0  0  0  0
   17.6102   -9.6964   11.5261 C   0  0  0  0  0  0  0  0  0  0  0  0
   16.4359  -10.1500   10.9016 C   0  0  0  0  0  0  0  0  0  0  0  0
   16.2695   -9.9175    9.5321 C   0  0  0  0  0  0  0  0  0  0  0  0
   15.2299  -10.3157    8.9428 O   0  0  0  0  0  0  0  0  0  0  0  0
   18.5176   -7.8116    5.7636 C   0  0  0  0  0  0  0  0  0  0  0  0
   19.9139   -7.2390    5.6148 C   0  0  0  0  0  0  0  0  0  0  0  0
   20.4993   -7.6725    4.2881 C   0  0  0  0  0  0  0  0  0  0  0  0
   21.8291   -6.9815    4.0739 C   0  0  0  0  0  0  0  0  0  0  0  0
 18 19  1  0  0  0
 19 20  2  0  0  0
 20 21  1  0  0  0
 21 22  1  0  0  0
 22 23  2  0  0  0
 23 24  1  0  0  0
 24 17  1  0  0  0
 17  1  1  0  0  0
  1  2  1  0  0  0
  2  3  2  0  0  0
  3  4  1  0  0  0
  4  5  2  0  0  0
  5  6  1  0  0  0
  6  7  2  0  0  0
  6  8  1  0  0  0
  8  9  1  0  0  0
  9 10  2  0  0  0
  9 12  1  0  0  0
 12 13  2  0  0  0
 13 14  1  0  0  0
 14 15  2  0  0  0
 15 16  1  0  0  0
 24 25  2  0  0  0
 25 26  1  0  0  0
 26 27  2  0  0  0
 20 28  1  0  0  0
 28 29  1  0  0  0
 29 30  1  0  0  0
 30 31  1  0  0  0
 22 18  1  0  0  0
  7  2  1  0  0  0
 16 12  1  0  0  0
 26 18  1  0  0  0
  8 11  1  0  0  0
M  END
>  <minimizedAffinity>
-6.91136

>  <minimizedRMSD>
1.90561

$$$$
ChemDiv-D483-1471 MCULE-6047973935 MolPort-007-710-935 PubChem-20899065 ZINC000015859228 ZINC15859228


 34 37  0  0  0  0  0  0  0  0999 V2000
   16.1840   -8.8302   15.2487 C   0  0  0  0  0  0  0  0  0  0  0  0
   15.7065   -7.8660   14.4383 N   0  0  0  0  0  0  0  0  0  0  0  0
   15.7143   -8.3595   13.2070 N   0  0  0  0  0  0  0  0  0  0  0  0
   16.1996   -9.6143   13.2900 C   0  0  0  0  0  0  0  0  0  0  0  0
   16.5030   -9.9373   14.5585 N   0  0  0  0  0  0  0  0  0  0  0  0
   17.0342  -11.1916   15.0682 C   0  0  0  0  0  0  0  0  0  0  0  0
   16.3733   -8.6388   17.0211 S   0  0  0  0  0  0  0  0  0  0  0  0
   14.7073   -7.9361   17.2299 C   0  0  0  0  0  0  0  0  0  0  0  0
   15.3927   -7.8029   19.6548 N   0  0  0  0  0  0  0  0  0  0  0  0
   14.5668   -7.3302   18.5829 C   0  0  0  0  0  0  0  0  0  0  0  0
   13.7359   -6.4006   18.7585 O   0  0  0  0  0  0  0  0  0  0  0  0
   16.0089   -8.5414   19.4446 H   0  0  0  0  0  0  0  0  0  0  0  0
   16.6525   -6.2372   22.7972 C   0  0  0  0  0  0  0  0  0  0  0  0
   15.5280   -6.3184   23.6237 C   0  0  0  0  0  0  0  0  0  0  0  0
   14.3498   -6.8987   23.1475 C   0  0  0  0  0  0  0  0  0  0  0  0
   14.2933   -7.3942   21.8418 C   0  0  0  0  0  0  0  0  0  0  0  0
   15.4142   -7.3114   21.0019 C   0  0  0  0  0  0  0  0  0  0  0  0
   16.5901   -6.7282   21.4867 C   0  0  0  0  0  0  0  0  0  0  0  0
   19.0283   -6.6108   23.3797 C   0  0  0  0  0  0  0  0  0  0  0  0
   17.8991   -5.5993   23.3092 C   0  0  0  0  0  0  0  0  0  0  0  0
   16.3786  -10.5204   12.1138 C   0  0  0  0  0  0  0  0  0  0  0  0
   17.2136   -9.8580   11.0546 C   0  0  0  0  0  0  0  0  0  0  0  0
   18.5258   -9.4396   11.3209 C   0  0  0  0  0  0  0  0  0  0  0  0
   19.1601   -9.6618   12.6524 C   0  0  0  0  0  0  0  0  0  0  0  0
   19.2454   -8.8217   10.3521 N   0  0  0  0  0  0  0  0  0  0  0  0
   18.7259   -8.5947    9.1203 C   0  0  0  0  0  0  0  0  0  0  0  0
   19.5079   -7.9528    8.1568 C   0  0  0  0  0  0  0  0  0  0  0  0
   18.9791   -7.7184    6.8896 C   0  0  0  0  0  0  0  0  0  0  0  0
   19.7981   -7.0354    5.8548 C   0  0  0  0  0  0  0  0  0  0  0  0
   17.6793   -8.1243    6.5954 C   0  0  0  0  0  0  0  0  0  0  0  0
   16.9234   -8.7628    7.5802 C   0  0  0  0  0  0  0  0  0  0  0  0
   17.4422   -8.9929    8.8237 N   0  0  0  0  0  0  0  0  0  0  0  0
   16.6830   -9.6188    9.7763 C   0  0  0  0  0  0  0  0  0  0  0  0
   15.5021   -9.9853    9.5128 O   0  0  0  0  0  0  0  0  0  0  0  0
 19 20  1  0  0  0
 20 13  1  0  0  0
 13 14  2  0  0  0
 14 15  1  0  0  0
 15 16  2  0  0  0
 16 17  1  0  0  0
 17  9  1  0  0  0
 17 18  2  0  0  0
  9 10  1  0  0  0
 10 11  2  0  0  0
 10  8  1  0  0  0
  8  7  1  0  0  0
  7  1  1  0  0  0
  1  2  2  0  0  0
  2  3  1  0  0  0
  3  4  2  0  0  0
  4 21  1  0  0  0
  4  5  1  0  0  0
 21 22  1  0  0  0
 22 23  2  0  0  0
 23 24  1  0  0  0
 23 25  1  0  0  0
 25 26  2  0  0  0
 26 27  1  0  0  0
 27 28  2  0  0  0
 28 29  1  0  0  0
 28 30  1  0  0  0
 30 31  2  0  0  0
 31 32  1  0  0  0
 32 33  1  0  0  0
 32 26  1  0  0  0
 33 34  2  0  0  0
 33 22  1  0  0  0
  5  6  1  0  0  0
  5  1  1  0  0  0
 18 13  1  0  0  0
  9 12  1  0  0  0
M  END
>  <minimizedAffinity>
-6.89404

>  <minimizedRMSD>
2.65310

$$$$
ChemDiv-C679-5551 MCULE-9436446632 MolPort-010-797-245 PubChem-53043756 ZINC000064775680


 26 28  0  0  0  0  0  0  0  0999 V2000
   17.2932   -9.8398   13.0530 O   0  0  0  0  0  0  0  0  0  0  0  0
   17.3472  -10.2349   14.3920 C   0  0  0  0  0  0  0  0  0  0  0  0
   17.9462  -11.4437   14.7802 C   0  0  0  0  0  0  0  0  0  0  0  0
   17.9833  -11.8089   16.1280 C   0  0  0  0  0  0  0  0  0  0  0  0
   17.4230  -10.9697   17.0947 C   0  0  0  0  0  0  0  0  0  0  0  0
   16.8230   -9.7623   16.7224 C   0  0  0  0  0  0  0  0  0  0  0  0
   16.7893   -9.4017   15.3667 C   0  0  0  0  0  0  0  0  0  0  0  0
   16.2593   -8.9286   17.7439 N   0  0  0  0  0  0  0  0  0  0  0  0
   15.2216   -7.9496   17.5788 C   0  0  0  0  0  0  0  0  0  0  0  0
   14.6991   -7.7398   16.4522 O   0  0  0  0  0  0  0  0  0  0  0  0
   16.6212   -9.0388   18.6528 H   0  0  0  0  0  0  0  0  0  0  0  0
   14.7464   -7.1615   18.7537 C   0  0  0  0  0  0  0  0  0  0  0  0
   14.9784   -7.9319   20.0390 C   0  0  0  0  0  0  0  0  0  0  0  0
   13.2738   -6.8295   18.6100 C   0  0  0  0  0  0  0  0  0  0  0  0
   18.4262   -9.3438   12.3525 C   0  0  0  0  0  0  0  0  0  0  0  0
   17.5799   -9.1904    8.2216 N   0  0  0  0  0  0  0  0  0  0  0  0
   17.4676   -9.0321    6.8757 C   0  0  0  0  0  0  0  0  0  0  0  0
   18.5242   -8.3083    6.3278 C   0  0  0  0  0  0  0  0  0  0  0  0
   19.6134   -7.8591    7.5423 S   0  0  0  0  0  0  0  0  0  0  0  0
   18.6917   -8.6099    8.7265 C   0  0  0  0  0  0  0  0  0  0  0  0
   18.9812   -8.6561   10.0499 N   0  0  0  0  0  0  0  0  0  0  0  0
   18.1354   -9.3096   10.8951 C   0  0  0  0  0  0  0  0  0  0  0  0
   16.9690   -9.9148   10.4019 C   0  0  0  0  0  0  0  0  0  0  0  0
   16.7031   -9.8461    9.0301 C   0  0  0  0  0  0  0  0  0  0  0  0
   15.6650  -10.3843    8.5605 O   0  0  0  0  0  0  0  0  0  0  0  0
   18.6738   -7.9771    4.8871 C   0  0  0  0  0  0  0  0  0  0  0  0
 16 17  1  0  0  0
 17 18  2  0  0  0
 18 19  1  0  0  0
 19 20  1  0  0  0
 20 21  2  0  0  0
 21 22  1  0  0  0
 22 15  1  0  0  0
 15  1  1  0  0  0
  1  2  1  0  0  0
  2  3  2  0  0  0
  3  4  1  0  0  0
  4  5  2  0  0  0
  5  6  1  0  0  0
  6  7  2  0  0  0
  6  8  1  0  0  0
  8  9  1  0  0  0
  9 12  1  0  0  0
 12 13  1  0  0  0
 12 14  1  0  0  0
  9 10  2  0  0  0
 22 23  2  0  0  0
 23 24  1  0  0  0
 24 25  2  0  0  0
 18 26  1  0  0  0
 20 16  1  0  0  0
  7  2  1  0  0  0
 24 16  1  0  0  0
  8 11  1  0  0  0
M  END
>  <minimizedAffinity>
-6.89304

>  <minimizedRMSD>
0.87448

$$$$
ChemDiv-C679-4535 MCULE-1551547721 MolPort-007-655-916 PubChem-46258377 ZINC000013368182


 33 36  0  0  0  0  0  0  0  0999 V2000
   17.3303   -9.6148   14.9493 C   0  0  0  0  0  0  0  0  0  0  0  0
   18.1014  -10.6604   15.4813 C   0  0  0  0  0  0  0  0  0  0  0  0
   17.9953  -10.9941   16.8335 C   0  0  0  0  0  0  0  0  0  0  0  0
   17.1209  -10.2850   17.6615 C   0  0  0  0  0  0  0  0  0  0  0  0
   16.3490   -9.2390   17.1458 C   0  0  0  0  0  0  0  0  0  0  0  0
   16.4586   -8.9110   15.7858 C   0  0  0  0  0  0  0  0  0  0  0  0
   15.4656   -8.5340   18.0284 N   0  0  0  0  0  0  0  0  0  0  0  0
   14.3827   -7.6686   17.6585 C   0  0  0  0  0  0  0  0  0  0  0  0
   14.1096   -7.4853   16.4405 O   0  0  0  0  0  0  0  0  0  0  0  0
   15.6189   -8.6572   18.9931 H   0  0  0  0  0  0  0  0  0  0  0  0
   13.5461   -7.0097   18.6923 C   0  0  0  0  0  0  0  0  0  0  0  0
   12.2540   -6.5995   18.3221 C   0  0  0  0  0  0  0  0  0  0  0  0
   11.4023   -5.9821   19.2394 C   0  0  0  0  0  0  0  0  0  0  0  0
   11.8319   -5.7593   20.5461 C   0  0  0  0  0  0  0  0  0  0  0  0
   13.1146   -6.1486   20.9322 C   0  0  0  0  0  0  0  0  0  0  0  0
   13.9781   -6.7700   20.0229 C   0  0  0  0  0  0  0  0  0  0  0  0
   15.5903   -7.1566   20.6097 Cl  0  0  0  0  0  0  0  0  0  0  0  0
   17.4090   -9.2572   13.6011 O   0  0  0  0  0  0  0  0  0  0  0  0
   18.4562   -9.7016   12.7485 C   0  0  0  0  0  0  0  0  0  0  0  0
   17.1932   -9.3985    8.7369 N   0  0  0  0  0  0  0  0  0  0  0  0
   16.9340   -9.2298    7.4426 N   0  0  0  0  0  0  0  0  0  0  0  0
   17.9828   -8.6833    6.7809 C   0  0  0  0  0  0  0  0  0  0  0  0
   19.2972   -8.3766    7.8108 S   0  0  0  0  0  0  0  0  0  0  0  0
   18.4252   -8.9916    9.1080 C   0  0  0  0  0  0  0  0  0  0  0  0
   18.8512   -9.0868   10.3912 N   0  0  0  0  0  0  0  0  0  0  0  0
   18.0158   -9.6131   11.3311 C   0  0  0  0  0  0  0  0  0  0  0  0
   16.7256  -10.0387   10.9751 C   0  0  0  0  0  0  0  0  0  0  0  0
   16.3237   -9.9234    9.6400 C   0  0  0  0  0  0  0  0  0  0  0  0
   15.1748  -10.3005    9.2880 O   0  0  0  0  0  0  0  0  0  0  0  0
   17.9553   -8.3588    5.3205 C   0  0  0  0  0  0  0  0  0  0  0  0
   19.2592   -7.7403    4.8130 C   0  0  0  0  0  0  0  0  0  0  0  0
   19.9601   -8.6369    3.8081 C   0  0  0  0  0  0  0  0  0  0  0  0
   20.1973   -7.3800    5.9508 C   0  0  0  0  0  0  0  0  0  0  0  0
 20 21  1  0  0  0
 21 22  2  0  0  0
 22 23  1  0  0  0
 23 24  1  0  0  0
 24 25  2  0  0  0
 25 26  1  0  0  0
 26 19  1  0  0  0
 19 18  1  0  0  0
 18  1  1  0  0  0
  1  2  2  0  0  0
  2  3  1  0  0  0
  3  4  2  0  0  0
  4  5  1  0  0  0
  5  6  2  0  0  0
  5  7  1  0  0  0
  7  8  1  0  0  0
  8  9  2  0  0  0
  8 11  1  0  0  0
 11 12  2  0  0  0
 12 13  1  0  0  0
 13 14  2  0  0  0
 14 15  1  0  0  0
 15 16  2  0  0  0
 16 17  1  0  0  0
 26 27  2  0  0  0
 27 28  1  0  0  0
 28 29  2  0  0  0
 22 30  1  0  0  0
 30 31  1  0  0  0
 31 32  1  0  0  0
 31 33  1  0  0  0
 24 20  1  0  0  0
  6  1  1  0  0  0
 16 11  1  0  0  0
 28 20  1  0  0  0
  7 10  1  0  0  0
M  END
>  <minimizedAffinity>
-6.89154

>  <minimizedRMSD>
1.88763

$$$$
ChemDiv-C679-4356 MCULE-6131590103 MolPort-007-655-841 PubChem-20874241 ZINC000020859212


 29 32  0  0  0  0  0  0  0  0999 V2000
   16.6494   -9.2684   15.0428 C   0  0  0  0  0  0  0  0  0  0  0  0
   17.3105  -10.2438   15.8057 C   0  0  0  0  0  0  0  0  0  0  0  0
   17.1964  -10.2440   17.1979 C   0  0  0  0  0  0  0  0  0  0  0  0
   16.4214   -9.2714   17.8351 C   0  0  0  0  0  0  0  0  0  0  0  0
   15.7568   -8.2936   17.0878 C   0  0  0  0  0  0  0  0  0  0  0  0
   15.8769   -8.2984   15.6896 C   0  0  0  0  0  0  0  0  0  0  0  0
   14.9686   -7.3151   17.7795 N   0  0  0  0  0  0  0  0  0  0  0  0
   13.6107   -7.4594   18.2201 C   0  0  0  0  0  0  0  0  0  0  0  0
   12.9735   -8.5275   18.0147 O   0  0  0  0  0  0  0  0  0  0  0  0
   15.4051   -6.4540   17.9721 H   0  0  0  0  0  0  0  0  0  0  0  0
   12.9555   -6.3481   18.9200 C   0  0  0  0  0  0  0  0  0  0  0  0
   12.0115   -5.4919   18.3745 C   0  0  0  0  0  0  0  0  0  0  0  0
   11.5628   -4.5260   19.2871 C   0  0  0  0  0  0  0  0  0  0  0  0
   12.1450   -4.6115   20.5499 C   0  0  0  0  0  0  0  0  0  0  0  0
   13.2225   -5.9027   20.5145 S   0  0  0  0  0  0  0  0  0  0  0  0
   16.7440   -9.2397   13.6491 O   0  0  0  0  0  0  0  0  0  0  0  0
   17.6728  -10.0371   12.9269 C   0  0  0  0  0  0  0  0  0  0  0  0
   17.3779   -9.1168    8.8224 N   0  0  0  0  0  0  0  0  0  0  0  0
   17.4207   -8.7419    7.5464 N   0  0  0  0  0  0  0  0  0  0  0  0
   18.5260   -8.0086    7.2687 C   0  0  0  0  0  0  0  0  0  0  0  0
   19.5016   -7.7801    8.6388 S   0  0  0  0  0  0  0  0  0  0  0  0
   18.4244   -8.6846    9.5570 C   0  0  0  0  0  0  0  0  0  0  0  0
   18.5381   -8.9749   10.8760 N   0  0  0  0  0  0  0  0  0  0  0  0
   17.5739   -9.7289   11.4759 C   0  0  0  0  0  0  0  0  0  0  0  0
   16.4679  -10.1841   10.7389 C   0  0  0  0  0  0  0  0  0  0  0  0
   16.3867   -9.8617    9.3798 C   0  0  0  0  0  0  0  0  0  0  0  0
   15.4094  -10.2571    8.6907 O   0  0  0  0  0  0  0  0  0  0  0  0
   18.8067   -7.4282    5.9280 C   0  0  0  0  0  0  0  0  0  0  0  0
   20.3008   -7.4186    5.6727 C   0  0  0  0  0  0  0  0  0  0  0  0
 18 19  1  0  0  0
 19 20  2  0  0  0
 20 21  1  0  0  0
 21 22  1  0  0  0
 22 23  2  0  0  0
 23 24  1  0  0  0
 24 17  1  0  0  0
 17 16  1  0  0  0
 16  1  1  0  0  0
  1  2  2  0  0  0
  2  3  1  0  0  0
  3  4  2  0  0  0
  4  5  1  0  0  0
  5  6  2  0  0  0
  5  7  1  0  0  0
  7  8  1  0  0  0
  8  9  2  0  0  0
  8 11  1  0  0  0
 11 12  2  0  0  0
 12 13  1  0  0  0
 13 14  2  0  0  0
 14 15  1  0  0  0
 24 25  2  0  0  0
 25 26  1  0  0  0
 26 27  2  0  0  0
 20 28  1  0  0  0
 28 29  1  0  0  0
 22 18  1  0  0  0
  6  1  1  0  0  0
 15 11  1  0  0  0
 26 18  1  0  0  0
  7 10  1  0  0  0
M  END
>  <minimizedAffinity>
-6.88656

>  <minimizedRMSD>
1.56263

$$$$
ChemDiv-C679-5368 MCULE-8923968094 MolPort-010-797-214 PubChem-52098564 ZINC000041085716 ZINC41085716


 27 29  0  0  0  0  0  0  0  0999 V2000
   16.6958   -9.2296   14.3269 C   0  0  0  0  0  0  0  0  0  0  0  0
   17.9847   -9.7689   14.4622 C   0  0  0  0  0  0  0  0  0  0  0  0
   18.5776   -9.8652   15.7234 C   0  0  0  0  0  0  0  0  0  0  0  0
   17.8872   -9.4236   16.8552 C   0  0  0  0  0  0  0  0  0  0  0  0
   16.6028   -8.8828   16.7353 C   0  0  0  0  0  0  0  0  0  0  0  0
   16.0129   -8.7904   15.4654 C   0  0  0  0  0  0  0  0  0  0  0  0
   15.9259   -8.4441   17.9209 N   0  0  0  0  0  0  0  0  0  0  0  0
   14.6888   -7.7166   17.9885 C   0  0  0  0  0  0  0  0  0  0  0  0
   14.1136   -7.3352   16.9317 O   0  0  0  0  0  0  0  0  0  0  0  0
   16.3542   -8.6648   18.7795 H   0  0  0  0  0  0  0  0  0  0  0  0
   14.1244   -7.3357   19.3329 C   0  0  0  0  0  0  0  0  0  0  0  0
   13.6308   -5.8982   19.3385 C   0  0  0  0  0  0  0  0  0  0  0  0
   12.9565   -8.2365   19.6932 C   0  0  0  0  0  0  0  0  0  0  0  0
   15.2025   -7.4851   20.3877 C   0  0  0  0  0  0  0  0  0  0  0  0
   16.0739   -9.1195   13.0807 O   0  0  0  0  0  0  0  0  0  0  0  0
   16.0241  -10.1928   12.1500 C   0  0  0  0  0  0  0  0  0  0  0  0
   18.3323   -8.6909    6.0806 C   0  0  0  0  0  0  0  0  0  0  0  0
   18.6265   -8.4599    7.5251 C   0  0  0  0  0  0  0  0  0  0  0  0
   19.7185   -7.6811    7.9194 C   0  0  0  0  0  0  0  0  0  0  0  0
   19.7299   -7.6451    9.6116 S   0  0  0  0  0  0  0  0  0  0  0  0
   18.3694   -8.6058    9.7551 C   0  0  0  0  0  0  0  0  0  0  0  0
   17.7915   -8.9938   10.9180 N   0  0  0  0  0  0  0  0  0  0  0  0
   16.6840   -9.7838   10.8821 C   0  0  0  0  0  0  0  0  0  0  0  0
   16.1388  -10.1782    9.6530 C   0  0  0  0  0  0  0  0  0  0  0  0
   16.7606   -9.7591    8.4721 C   0  0  0  0  0  0  0  0  0  0  0  0
   16.2812  -10.1110    7.3616 O   0  0  0  0  0  0  0  0  0  0  0  0
   17.8775   -8.9728    8.5508 N   0  0  0  0  0  0  0  0  0  0  0  0
 17 18  1  0  0  0
 18 19  2  0  0  0
 19 20  1  0  0  0
 20 21  1  0  0  0
 21 22  2  0  0  0
 22 23  1  0  0  0
 23 16  1  0  0  0
 23 24  2  0  0  0
 16 15  1  0  0  0
 15  1  1  0  0  0
  1  2  2  0  0  0
  2  3  1  0  0  0
  3  4  2  0  0  0
  4  5  1  0  0  0
  5  7  1  0  0  0
  5  6  2  0  0  0
  7  8  1  0  0  0
  8  9  2  0  0  0
  8 11  1  0  0  0
 11 12  1  0  0  0
 11 13  1  0  0  0
 11 14  1  0  0  0
  6  1  1  0  0  0
 24 25  1  0  0  0
 25 26  2  0  0  0
 25 27  1  0  0  0
 27 18  1  0  0  0
 27 21  1  0  0  0
  7 10  1  0  0  0
M  END
>  <minimizedAffinity>
-6.88141

>  <minimizedRMSD>
1.28022

$$$$
ChemDiv-G756-0787 MCULE-3589729665 MolPort-007-879-404 PubChem-46356216 ZINC000033067910 ZINC33067910


 34 37  0  0  0  0  0  0  0  0999 V2000
   16.8746   -9.7831   17.1241 C   0  0  0  0  0  0  0  0  0  0  0  0
   17.3533  -11.0304   17.5250 C   0  0  0  0  0  0  0  0  0  0  0  0
   17.8389  -11.9353   16.5804 C   0  0  0  0  0  0  0  0  0  0  0  0
   17.8563  -11.6078   15.2212 C   0  0  0  0  0  0  0  0  0  0  0  0
   18.3909  -12.6370   14.2859 C   0  0  0  0  0  0  0  0  0  0  0  0
   17.3749  -10.3400   14.7990 C   0  0  0  0  0  0  0  0  0  0  0  0
   16.8896   -9.4495   15.7635 C   0  0  0  0  0  0  0  0  0  0  0  0
   15.4118   -7.8398   17.9317 C   0  0  0  0  0  0  0  0  0  0  0  0
   14.9021   -7.6184   16.8014 O   0  0  0  0  0  0  0  0  0  0  0  0
   16.3783   -8.8807   18.1218 N   0  0  0  0  0  0  0  0  0  0  0  0
   16.7389   -8.9872   19.0316 H   0  0  0  0  0  0  0  0  0  0  0  0
   14.9752   -7.0276   19.1018 C   0  0  0  0  0  0  0  0  0  0  0  0
   13.6805   -6.4830   18.8664 O   0  0  0  0  0  0  0  0  0  0  0  0
    9.0148   -9.6182   17.9902 C   0  0  0  0  0  0  0  0  0  0  0  0
   10.2357   -8.8051   18.2269 C   0  0  0  0  0  0  0  0  0  0  0  0
   10.5040   -7.6954   17.4203 C   0  0  0  0  0  0  0  0  0  0  0  0
   11.6528   -6.9302   17.6428 C   0  0  0  0  0  0  0  0  0  0  0  0
   12.5403   -7.2698   18.6700 C   0  0  0  0  0  0  0  0  0  0  0  0
   12.2637   -8.3843   19.4793 C   0  0  0  0  0  0  0  0  0  0  0  0
   11.1151   -9.1491   19.2573 C   0  0  0  0  0  0  0  0  0  0  0  0
   17.3463   -9.8998   13.4660 O   0  0  0  0  0  0  0  0  0  0  0  0
   18.4433   -9.9272   12.5640 C   0  0  0  0  0  0  0  0  0  0  0  0
   17.9622   -9.6514   11.1850 C   0  0  0  0  0  0  0  0  0  0  0  0
   16.6912  -10.0587   10.7958 C   0  0  0  0  0  0  0  0  0  0  0  0
   16.2578   -9.7651    9.5044 C   0  0  0  0  0  0  0  0  0  0  0  0
   15.1058  -10.1375    9.1488 O   0  0  0  0  0  0  0  0  0  0  0  0
   17.0738   -9.0817    8.6428 N   0  0  0  0  0  0  0  0  0  0  0  0
   16.6417   -8.7989    7.3777 C   0  0  0  0  0  0  0  0  0  0  0  0
   17.4527   -8.1009    6.4831 C   0  0  0  0  0  0  0  0  0  0  0  0
   18.7187   -7.6874    6.8894 C   0  0  0  0  0  0  0  0  0  0  0  0
   19.1652   -7.9726    8.1783 C   0  0  0  0  0  0  0  0  0  0  0  0
   20.5241   -7.5181    8.5920 C   0  0  0  0  0  0  0  0  0  0  0  0
   18.3263   -8.6795    9.0565 C   0  0  0  0  0  0  0  0  0  0  0  0
   18.7487   -8.9668   10.3178 N   0  0  0  0  0  0  0  0  0  0  0  0
 14 15  1  0  0  0
 15 16  2  0  0  0
 16 17  1  0  0  0
 17 18  2  0  0  0
 18 13  1  0  0  0
 18 19  1  0  0  0
 13 12  1  0  0  0
 12  8  1  0  0  0
  8  9  2  0  0  0
  8 10  1  0  0  0
 10  1  1  0  0  0
  1  2  2  0  0  0
  2  3  1  0  0  0
  3  4  2  0  0  0
  4  5  1  0  0  0
  4  6  1  0  0  0
  6 21  1  0  0  0
  6  7  2  0  0  0
 21 22  1  0  0  0
 22 23  1  0  0  0
 23 24  2  0  0  0
 24 25  1  0  0  0
 25 26  2  0  0  0
 25 27  1  0  0  0
 27 28  1  0  0  0
 28 29  2  0  0  0
 29 30  1  0  0  0
 30 31  2  0  0  0
 31 32  1  0  0  0
 31 33  1  0  0  0
 33 34  2  0  0  0
 33 27  1  0  0  0
 34 23  1  0  0  0
  7  1  1  0  0  0
 19 20  2  0  0  0
 20 15  1  0  0  0
 10 11  1  0  0  0
M  END
>  <minimizedAffinity>
-6.87540

>  <minimizedRMSD>
1.18383

$$$$
ChemDiv-G357-0528 MCULE-3855813751 MolPort-007-847-223 PubChem-20953005 ZINC000015771624


 35 38  0  0  0  0  0  0  0  0999 V2000
   16.9975   -9.1283   16.0096 C   0  0  0  0  0  0  0  0  0  0  0  0
   17.2225   -9.4730   17.3494 C   0  0  0  0  0  0  0  0  0  0  0  0
   16.4396   -8.9132   18.3626 C   0  0  0  0  0  0  0  0  0  0  0  0
   15.4250   -8.0019   18.0521 C   0  0  0  0  0  0  0  0  0  0  0  0
   15.1981   -7.6587   16.7115 C   0  0  0  0  0  0  0  0  0  0  0  0
   15.9789   -8.2188   15.6974 C   0  0  0  0  0  0  0  0  0  0  0  0
   14.6442   -7.4483   19.1196 N   0  0  0  0  0  0  0  0  0  0  0  0
   13.4257   -6.7023   18.9942 C   0  0  0  0  0  0  0  0  0  0  0  0
   12.9200   -6.4648   17.8657 O   0  0  0  0  0  0  0  0  0  0  0  0
   14.9793   -7.5954   20.0335 H   0  0  0  0  0  0  0  0  0  0  0  0
   12.7177   -6.2304   20.2211 C   0  0  0  0  0  0  0  0  0  0  0  0
   12.8955   -7.1498   21.2960 O   0  0  0  0  0  0  0  0  0  0  0  0
   13.6758   -6.8744   22.4251 C   0  0  0  0  0  0  0  0  0  0  0  0
   14.7310   -7.7158   22.8178 C   0  0  0  0  0  0  0  0  0  0  0  0
   15.4886   -7.4142   23.9539 C   0  0  0  0  0  0  0  0  0  0  0  0
   15.1976   -6.2708   24.7040 C   0  0  0  0  0  0  0  0  0  0  0  0
   14.1497   -5.4295   24.3173 C   0  0  0  0  0  0  0  0  0  0  0  0
   13.8406   -4.2126   25.1135 C   0  0  0  0  0  0  0  0  0  0  0  0
   13.3920   -5.7318   23.1812 C   0  0  0  0  0  0  0  0  0  0  0  0
   17.8229   -9.7067   14.9372 C   0  0  0  0  0  0  0  0  0  0  0  0
   18.9796  -10.1429   15.1937 O   0  0  0  0  0  0  0  0  0  0  0  0
   17.3210   -9.7659   13.6352 O   0  0  0  0  0  0  0  0  0  0  0  0
   17.8040  -10.7034   12.6834 C   0  0  0  0  0  0  0  0  0  0  0  0
   17.5338   -8.9754    8.8458 N   0  0  0  0  0  0  0  0  0  0  0  0
   17.5870   -8.3532    7.6704 N   0  0  0  0  0  0  0  0  0  0  0  0
   18.7222   -7.6258    7.5320 C   0  0  0  0  0  0  0  0  0  0  0  0
   19.7312   -7.7495    8.8914 S   0  0  0  0  0  0  0  0  0  0  0  0
   18.6108   -8.7592    9.6302 C   0  0  0  0  0  0  0  0  0  0  0  0
   18.7183   -9.3138   10.8620 N   0  0  0  0  0  0  0  0  0  0  0  0
   17.7157  -10.1157   11.3201 C   0  0  0  0  0  0  0  0  0  0  0  0
   16.5787  -10.3523   10.5299 C   0  0  0  0  0  0  0  0  0  0  0  0
   16.5066   -9.7625    9.2623 C   0  0  0  0  0  0  0  0  0  0  0  0
   15.5034   -9.9590    8.5268 O   0  0  0  0  0  0  0  0  0  0  0  0
   19.0557   -6.8567    6.3035 C   0  0  0  0  0  0  0  0  0  0  0  0
   20.2376   -7.4937    5.6006 C   0  0  0  0  0  0  0  0  0  0  0  0
 24 25  1  0  0  0
 25 26  2  0  0  0
 26 27  1  0  0  0
 27 28  1  0  0  0
 28 29  2  0  0  0
 29 30  1  0  0  0
 30 23  1  0  0  0
 23 22  1  0  0  0
 22 20  1  0  0  0
 20 21  2  0  0  0
 20  1  1  0  0  0
  1  2  2  0  0  0
  2  3  1  0  0  0
  3  4  2  0  0  0
  4  5  1  0  0  0
  5  6  2  0  0  0
  4  7  1  0  0  0
  7  8  1  0  0  0
  8 11  1  0  0  0
 11 12  1  0  0  0
 12 13  1  0  0  0
 13 14  2  0  0  0
 14 15  1  0  0  0
 15 16  2  0  0  0
 16 17  1  0  0  0
 17 18  1  0  0  0
 17 19  2  0  0  0
  8  9  2  0  0  0
 30 31  2  0  0  0
 31 32  1  0  0  0
 32 33  2  0  0  0
 26 34  1  0  0  0
 34 35  1  0  0  0
 28 24  1  0  0  0
  6  1  1  0  0  0
 19 13  1  0  0  0
 32 24  1  0  0  0
  7 10  1  0  0  0
M  END
>  <minimizedAffinity>
-6.85376

>  <minimizedRMSD>
2.94117

$$$$
ChemDiv-G756-0564 MCULE-7539178384 MolPort-007-879-268 PubChem-22580454 ZINC000021099848 ZINC21099848


 29 31  0  0  0  0  0  0  0  0999 V2000
   16.5744   -9.2957   17.3875 C   0  0  0  0  0  0  0  0  0  0  0  0
   16.6281   -9.0440   16.0080 C   0  0  0  0  0  0  0  0  0  0  0  0
   17.2853   -9.9274   15.1459 C   0  0  0  0  0  0  0  0  0  0  0  0
   17.8962  -11.0767   15.6721 C   0  0  0  0  0  0  0  0  0  0  0  0
   17.8462  -11.3337   17.0441 C   0  0  0  0  0  0  0  0  0  0  0  0
   17.1867  -10.4452   17.8976 C   0  0  0  0  0  0  0  0  0  0  0  0
   14.7266   -7.6358   18.0291 C   0  0  0  0  0  0  0  0  0  0  0  0
   14.1623   -7.6766   16.9040 O   0  0  0  0  0  0  0  0  0  0  0  0
   15.9067   -8.4092   18.2953 N   0  0  0  0  0  0  0  0  0  0  0  0
   16.2980   -8.3217   19.1945 H   0  0  0  0  0  0  0  0  0  0  0  0
   14.1481   -6.7649   19.0983 C   0  0  0  0  0  0  0  0  0  0  0  0
   14.2153   -6.2521   21.5397 C   0  0  0  0  0  0  0  0  0  0  0  0
   14.6159   -7.2436   20.4637 C   0  0  0  0  0  0  0  0  0  0  0  0
   12.6256   -6.7632   19.0291 C   0  0  0  0  0  0  0  0  0  0  0  0
   12.1123   -5.3858   18.6536 C   0  0  0  0  0  0  0  0  0  0  0  0
   17.3162   -9.6411   13.7789 O   0  0  0  0  0  0  0  0  0  0  0  0
   17.9301  -10.5012   12.8280 C   0  0  0  0  0  0  0  0  0  0  0  0
   17.6126  -10.0323   11.4536 C   0  0  0  0  0  0  0  0  0  0  0  0
   16.3741  -10.3185   10.8897 C   0  0  0  0  0  0  0  0  0  0  0  0
   16.0928   -9.8439    9.6102 C   0  0  0  0  0  0  0  0  0  0  0  0
   14.9715  -10.1080    9.0957 O   0  0  0  0  0  0  0  0  0  0  0  0
   17.0232   -9.1037    8.9302 N   0  0  0  0  0  0  0  0  0  0  0  0
   16.7400   -8.6426    7.6756 C   0  0  0  0  0  0  0  0  0  0  0  0
   17.6697   -7.8846    6.9640 C   0  0  0  0  0  0  0  0  0  0  0  0
   18.9016   -7.5953    7.5445 C   0  0  0  0  0  0  0  0  0  0  0  0
   19.1966   -8.0623    8.8238 C   0  0  0  0  0  0  0  0  0  0  0  0
   20.5215   -7.7382    9.4256 C   0  0  0  0  0  0  0  0  0  0  0  0
   18.2402   -8.8252    9.5155 C   0  0  0  0  0  0  0  0  0  0  0  0
   18.5143   -9.2893   10.7652 N   0  0  0  0  0  0  0  0  0  0  0  0
 12 13  1  0  0  0
 13 11  1  0  0  0
 11 14  1  0  0  0
 11  7  1  0  0  0
 14 15  1  0  0  0
  7  8  2  0  0  0
  7  9  1  0  0  0
  9  1  1  0  0  0
  1  2  2  0  0  0
  2  3  1  0  0  0
  3 16  1  0  0  0
  3  4  2  0  0  0
 16 17  1  0  0  0
 17 18  1  0  0  0
 18 19  2  0  0  0
 19 20  1  0  0  0
 20 21  2  0  0  0
 20 22  1  0  0  0
 22 23  1  0  0  0
 23 24  2  0  0  0
 24 25  1  0  0  0
 25 26  2  0  0  0
 26 27  1  0  0  0
 26 28  1  0  0  0
 28 29  2  0  0  0
 28 22  1  0  0  0
 29 18  1  0  0  0
  4  5  1  0  0  0
  5  6  2  0  0  0
  6  1  1  0  0  0
  9 10  1  0  0  0
M  END
>  <minimizedAffinity>
-6.84038

>  <minimizedRMSD>
1.04613

$$$$
ChemDiv-C679-4563 MCULE-6806072207 MolPort-007-655-928 PubChem-46258381 ZINC000013368205 ZINC13368205


 34 37  0  0  0  0  0  0  0  0999 V2000
   16.5132   -9.5910   17.2174 C   0  0  0  0  0  0  0  0  0  0  0  0
   16.5890   -9.2974   15.8471 C   0  0  0  0  0  0  0  0  0  0  0  0
   17.4385  -10.0230   15.0061 C   0  0  0  0  0  0  0  0  0  0  0  0
   18.2243  -11.0538   15.5445 C   0  0  0  0  0  0  0  0  0  0  0  0
   18.1544  -11.3511   16.9081 C   0  0  0  0  0  0  0  0  0  0  0  0
   17.3008  -10.6214   17.7401 C   0  0  0  0  0  0  0  0  0  0  0  0
   14.7771   -7.7777   17.7568 C   0  0  0  0  0  0  0  0  0  0  0  0
   14.6615   -7.4193   16.5521 O   0  0  0  0  0  0  0  0  0  0  0  0
   15.6520   -8.8620   18.1033 N   0  0  0  0  0  0  0  0  0  0  0  0
   15.6620   -9.1342   19.0493 H   0  0  0  0  0  0  0  0  0  0  0  0
   14.4915   -6.8395   20.1118 C   0  0  0  0  0  0  0  0  0  0  0  0
   13.9979   -7.0671   18.8021 C   0  0  0  0  0  0  0  0  0  0  0  0
   12.7185   -6.5959   18.4678 C   0  0  0  0  0  0  0  0  0  0  0  0
   11.9375   -5.9135   19.4008 C   0  0  0  0  0  0  0  0  0  0  0  0
   12.4261   -5.6888   20.6874 C   0  0  0  0  0  0  0  0  0  0  0  0
   13.6940   -6.1478   21.0394 C   0  0  0  0  0  0  0  0  0  0  0  0
   16.5304   -6.6943   21.5169 C   0  0  0  0  0  0  0  0  0  0  0  0
   15.7615   -7.2963   20.4826 O   0  0  0  0  0  0  0  0  0  0  0  0
   17.4814   -9.6997   13.6472 O   0  0  0  0  0  0  0  0  0  0  0  0
   18.0116  -10.5796   12.6644 C   0  0  0  0  0  0  0  0  0  0  0  0
   17.8223   -9.9867   11.3137 C   0  0  0  0  0  0  0  0  0  0  0  0
   16.6406  -10.2403   10.5984 C   0  0  0  0  0  0  0  0  0  0  0  0
   16.4744   -9.6466    9.3430 C   0  0  0  0  0  0  0  0  0  0  0  0
   15.4276   -9.8576    8.6752 O   0  0  0  0  0  0  0  0  0  0  0  0
   17.4585   -8.8421    8.8627 N   0  0  0  0  0  0  0  0  0  0  0  0
   17.4256   -8.2212    7.6859 N   0  0  0  0  0  0  0  0  0  0  0  0
   18.5412   -7.4837    7.4690 C   0  0  0  0  0  0  0  0  0  0  0  0
   19.6358   -7.5855    8.7628 S   0  0  0  0  0  0  0  0  0  0  0  0
   18.5803   -8.6102    9.5747 C   0  0  0  0  0  0  0  0  0  0  0  0
   18.7790   -9.1668   10.7943 N   0  0  0  0  0  0  0  0  0  0  0  0
   18.7810   -6.6993    6.2166 C   0  0  0  0  0  0  0  0  0  0  0  0
   19.5836   -7.4659    5.1636 C   0  0  0  0  0  0  0  0  0  0  0  0
   21.0774   -7.2376    5.3093 C   0  0  0  0  0  0  0  0  0  0  0  0
   19.2672   -8.9499    5.1801 C   0  0  0  0  0  0  0  0  0  0  0  0
 17 18  1  0  0  0
 18 11  1  0  0  0
 11 12  2  0  0  0
 12 13  1  0  0  0
 12  7  1  0  0  0
 13 14  2  0  0  0
 14 15  1  0  0  0
 15 16  2  0  0  0
 16 11  1  0  0  0
  7  8  2  0  0  0
  7  9  1  0  0  0
  9  1  1  0  0  0
  1  2  2  0  0  0
  2  3  1  0  0  0
  3 19  1  0  0  0
  3  4  2  0  0  0
 19 20  1  0  0  0
 20 21  1  0  0  0
 21 22  2  0  0  0
 22 23  1  0  0  0
 23 24  2  0  0  0
 23 25  1  0  0  0
 25 26  1  0  0  0
 26 27  2  0  0  0
 27 31  1  0  0  0
 27 28  1  0  0  0
 31 32  1  0  0  0
 32 33  1  0  0  0
 32 34  1  0  0  0
 28 29  1  0  0  0
 29 30  2  0  0  0
 29 25  1  0  0  0
 30 21  1  0  0  0
  4  5  1  0  0  0
  5  6  2  0  0  0
  6  1  1  0  0  0
  9 10  1  0  0  0
M  END
>  <minimizedAffinity>
-6.82668

>  <minimizedRMSD>
0.92289

$$$$
ChemDiv-P169-0175 MCULE-1925703741 MolPort-010-921-257 PubChem-53163052 ZINC000065217008 ZINC65217008


 26 28  0  0  0  0  0  0  0  0999 V2000
   18.1076  -10.4156   13.1438 C   0  0  0  0  0  0  0  0  0  0  0  0
   18.5427  -11.5981   13.0773 O   0  0  0  0  0  0  0  0  0  0  0  0
   18.1536   -9.5724   11.9903 N   0  0  0  0  0  0  0  0  0  0  0  0
   17.8085   -8.6529   12.0580 H   0  0  0  0  0  0  0  0  0  0  0  0
   16.4936   -8.9254   16.8267 C   0  0  0  0  0  0  0  0  0  0  0  0
   16.2250   -8.2686   15.6168 C   0  0  0  0  0  0  0  0  0  0  0  0
   16.7510   -8.7543   14.4168 C   0  0  0  0  0  0  0  0  0  0  0  0
   17.5529   -9.9037   14.4090 C   0  0  0  0  0  0  0  0  0  0  0  0
   17.8207  -10.5592   15.6189 C   0  0  0  0  0  0  0  0  0  0  0  0
   17.2939  -10.0723   16.8185 C   0  0  0  0  0  0  0  0  0  0  0  0
   14.3973   -7.2778   19.6510 C   0  0  0  0  0  0  0  0  0  0  0  0
   14.7870   -7.6747   18.2733 C   0  0  0  0  0  0  0  0  0  0  0  0
   14.0701   -7.3172   17.3018 O   0  0  0  0  0  0  0  0  0  0  0  0
   15.9718   -8.4570   18.0777 N   0  0  0  0  0  0  0  0  0  0  0  0
   16.4801   -8.6977   18.8857 H   0  0  0  0  0  0  0  0  0  0  0  0
   18.6934  -10.0297   10.7208 C   0  0  0  0  0  0  0  0  0  0  0  0
   17.7803   -9.6222    9.6155 C   0  0  0  0  0  0  0  0  0  0  0  0
   16.3882   -9.7185    9.5550 C   0  0  0  0  0  0  0  0  0  0  0  0
   15.5188  -10.3450   10.5879 C   0  0  0  0  0  0  0  0  0  0  0  0
   15.9035   -9.1217    8.4251 N   0  0  0  0  0  0  0  0  0  0  0  0
   17.0391   -8.6867    7.8450 C   0  0  0  0  0  0  0  0  0  0  0  0
   17.3487   -7.7821    6.4684 S   0  0  0  0  0  0  0  0  0  0  0  0
   19.0213   -7.8134    6.8794 C   0  0  0  0  0  0  0  0  0  0  0  0
   20.0869   -7.1579    6.0775 C   0  0  0  0  0  0  0  0  0  0  0  0
   19.2729   -8.4887    8.0350 N   0  0  0  0  0  0  0  0  0  0  0  0
   18.1324   -8.9572    8.5170 N   0  0  0  0  0  0  0  0  0  0  0  0
 11 12  1  0  0  0
 12 13  2  0  0  0
 12 14  1  0  0  0
 14  5  1  0  0  0
  5  6  2  0  0  0
  6  7  1  0  0  0
  7  8  2  0  0  0
  8  9  1  0  0  0
  8  1  1  0  0  0
  9 10  2  0  0  0
 10  5  1  0  0  0
  1  2  2  0  0  0
  1  3  1  0  0  0
  3 16  1  0  0  0
 16 17  1  0  0  0
 17 18  2  0  0  0
 18 19  1  0  0  0
 18 20  1  0  0  0
 20 21  2  0  0  0
 21 22  1  0  0  0
 22 23  1  0  0  0
 23 24  1  0  0  0
 23 25  2  0  0  0
 25 26  1  0  0  0
 26 17  1  0  0  0
 26 21  1  0  0  0
 14 15  1  0  0  0
  3  4  1  0  0  0
M  END
>  <minimizedAffinity>
-6.81854

>  <minimizedRMSD>
1.13609

$$$$
ChemDiv-D483-1448 MCULE-5053082498 MolPort-007-710-925 PubChem-20899055 ZINC000015859217


 34 37  0  0  0  0  0  0  0  0999 V2000
   16.4062   -9.6933   12.9135 C   0  0  0  0  0  0  0  0  0  0  0  0
   15.8661   -8.4583   12.9220 N   0  0  0  0  0  0  0  0  0  0  0  0
   15.9028   -8.0290   14.1766 N   0  0  0  0  0  0  0  0  0  0  0  0
   16.4624   -9.0110   14.9092 C   0  0  0  0  0  0  0  0  0  0  0  0
   16.7904  -10.0664   14.1460 N   0  0  0  0  0  0  0  0  0  0  0  0
   17.3941  -11.3226   14.5613 C   0  0  0  0  0  0  0  0  0  0  0  0
   16.5561  -10.5313   11.6839 C   0  0  0  0  0  0  0  0  0  0  0  0
   17.6699   -8.9790    8.4220 N   0  0  0  0  0  0  0  0  0  0  0  0
   17.1994   -8.8072    7.1499 C   0  0  0  0  0  0  0  0  0  0  0  0
   17.9563   -8.1313    6.1913 C   0  0  0  0  0  0  0  0  0  0  0  0
   19.2069   -7.6274    6.5414 C   0  0  0  0  0  0  0  0  0  0  0  0
   19.6865   -7.8023    7.8378 C   0  0  0  0  0  0  0  0  0  0  0  0
   18.9046   -8.4833    8.7740 C   0  0  0  0  0  0  0  0  0  0  0  0
   19.3758   -8.6513   10.0345 N   0  0  0  0  0  0  0  0  0  0  0  0
   18.6542   -9.3039   10.9785 C   0  0  0  0  0  0  0  0  0  0  0  0
   19.2344   -9.4588   12.3437 C   0  0  0  0  0  0  0  0  0  0  0  0
   17.3919   -9.8234   10.6554 C   0  0  0  0  0  0  0  0  0  0  0  0
   16.9115   -9.6450    9.3474 C   0  0  0  0  0  0  0  0  0  0  0  0
   15.7768  -10.1044    9.0321 O   0  0  0  0  0  0  0  0  0  0  0  0
   20.0275   -6.9050    5.5350 C   0  0  0  0  0  0  0  0  0  0  0  0
   16.7264   -8.9063   16.6792 S   0  0  0  0  0  0  0  0  0  0  0  0
   14.9618   -8.6281   17.0291 C   0  0  0  0  0  0  0  0  0  0  0  0
   14.7939   -7.6758   18.1625 C   0  0  0  0  0  0  0  0  0  0  0  0
   14.0785   -6.6506   18.0081 O   0  0  0  0  0  0  0  0  0  0  0  0
   15.4720   -7.9159   19.4004 N   0  0  0  0  0  0  0  0  0  0  0  0
   16.1386   -8.6400   19.4222 H   0  0  0  0  0  0  0  0  0  0  0  0
   15.2516   -7.1796   20.6103 C   0  0  0  0  0  0  0  0  0  0  0  0
   16.3701   -6.7399   21.3252 C   0  0  0  0  0  0  0  0  0  0  0  0
   16.2182   -6.0272   22.5147 C   0  0  0  0  0  0  0  0  0  0  0  0
   14.9416   -5.7584   23.0076 C   0  0  0  0  0  0  0  0  0  0  0  0
   13.8111   -6.2099   22.3221 C   0  0  0  0  0  0  0  0  0  0  0  0
   12.2294   -5.8647   23.0076 Cl  0  0  0  0  0  0  0  0  0  0  0  0
   13.9560   -6.9361   21.1238 C   0  0  0  0  0  0  0  0  0  0  0  0
   12.7456   -7.5031   20.4529 C   0  0  0  0  0  0  0  0  0  0  0  0
  8  9  1  0  0  0
  9 10  2  0  0  0
 10 11  1  0  0  0
 11 12  2  0  0  0
 12 13  1  0  0  0
 13 14  2  0  0  0
 14 15  1  0  0  0
 15 16  1  0  0  0
 15 17  2  0  0  0
 17  7  1  0  0  0
  7  1  1  0  0  0
  1  2  2  0  0  0
  2  3  1  0  0  0
  3  4  2  0  0  0
  4 21  1  0  0  0
 21 22  1  0  0  0
 22 23  1  0  0  0
 23 24  2  0  0  0
 23 25  1  0  0  0
 25 27  1  0  0  0
 27 28  2  0  0  0
 28 29  1  0  0  0
 29 30  2  0  0  0
 30 31  1  0  0  0
 31 32  1  0  0  0
 31 33  2  0  0  0
 33 34  1  0  0  0
  4  5  1  0  0  0
  5  6  1  0  0  0
 17 18  1  0  0  0
 18 19  2  0  0  0
 11 20  1  0  0  0
 13  8  1  0  0  0
  5  1  1  0  0  0
 18  8  1  0  0  0
 33 27  1  0  0  0
 25 26  1  0  0  0
M  END
>  <minimizedAffinity>
-6.80642

>  <minimizedRMSD>
2.58200

$$$$
ChemDiv-D549-1962 MCULE-9557379011 MolPort-010-800-796 PubChem-53046729 ZINC000064794162 ZINC64794162


 32 35  0  0  0  0  0  0  0  0999 V2000
   17.4780  -10.1099   13.2483 N   0  0  0  0  0  0  0  0  0  0  0  0
   16.6312  -10.2138   14.2897 C   0  0  0  0  0  0  0  0  0  0  0  0
   15.3674   -9.9230   13.9302 N   0  0  0  0  0  0  0  0  0  0  0  0
   15.3948   -9.6237   12.6393 N   0  0  0  0  0  0  0  0  0  0  0  0
   16.6767   -9.7241   12.2341 C   0  0  0  0  0  0  0  0  0  0  0  0
   17.0944   -9.5018   10.8389 C   0  0  0  0  0  0  0  0  0  0  0  0
   18.1843   -8.7437   10.3880 C   0  0  0  0  0  0  0  0  0  0  0  0
   19.0472   -8.0006   11.2446 N   0  0  0  0  0  0  0  0  0  0  0  0
   18.2703   -8.6917    8.9936 C   0  0  0  0  0  0  0  0  0  0  0  0
   19.2206   -8.0144    8.2298 C   0  0  0  0  0  0  0  0  0  0  0  0
   19.1176   -8.0782    6.8313 C   0  0  0  0  0  0  0  0  0  0  0  0
   18.0691   -8.8083    6.2384 C   0  0  0  0  0  0  0  0  0  0  0  0
   17.1501   -9.4544    7.0133 N   0  0  0  0  0  0  0  0  0  0  0  0
   17.2592   -9.3921    8.3634 C   0  0  0  0  0  0  0  0  0  0  0  0
   16.2317  -10.0791    9.4968 S   0  0  0  0  0  0  0  0  0  0  0  0
   18.9490   -8.0692   12.2218 H   0  0  0  0  0  0  0  0  0  0  0  0
   19.7415   -7.4186   10.8592 H   0  0  0  0  0  0  0  0  0  0  0  0
   19.1038  -11.9283   13.3878 C   0  0  0  0  0  0  0  0  0  0  0  0
   18.8992  -10.4345   13.2155 C   0  0  0  0  0  0  0  0  0  0  0  0
   17.1031  -10.6918   15.9525 S   0  0  0  0  0  0  0  0  0  0  0  0
   17.4535   -8.9777   16.4551 C   0  0  0  0  0  0  0  0  0  0  0  0
   16.1936   -8.2631   16.8044 C   0  0  0  0  0  0  0  0  0  0  0  0
   15.5829   -7.6156   15.9129 O   0  0  0  0  0  0  0  0  0  0  0  0
   15.6720   -8.3487   18.1348 N   0  0  0  0  0  0  0  0  0  0  0  0
   16.0901   -8.9966   18.7468 H   0  0  0  0  0  0  0  0  0  0  0  0
   14.5869   -7.5622   18.6431 C   0  0  0  0  0  0  0  0  0  0  0  0
   14.5937   -7.0119   19.9451 C   0  0  0  0  0  0  0  0  0  0  0  0
   15.7055   -7.2628   20.9059 C   0  0  0  0  0  0  0  0  0  0  0  0
   13.4962   -6.2663   20.3884 C   0  0  0  0  0  0  0  0  0  0  0  0
   12.3904   -6.0731   19.5576 C   0  0  0  0  0  0  0  0  0  0  0  0
   12.3698   -6.6387   18.2815 C   0  0  0  0  0  0  0  0  0  0  0  0
   13.4608   -7.3858   17.8311 C   0  0  0  0  0  0  0  0  0  0  0  0
 18 19  1  0  0  0
 19  1  1  0  0  0
  1  2  1  0  0  0
  2 20  1  0  0  0
  2  3  2  0  0  0
 20 21  1  0  0  0
 21 22  1  0  0  0
 22 23  2  0  0  0
 22 24  1  0  0  0
 24 26  1  0  0  0
 26 27  2  0  0  0
 27 28  1  0  0  0
 27 29  1  0  0  0
 29 30  2  0  0  0
 30 31  1  0  0  0
 31 32  2  0  0  0
 32 26  1  0  0  0
  3  4  1  0  0  0
  4  5  2  0  0  0
  5  6  1  0  0  0
  5  1  1  0  0  0
  6  7  2  0  0  0
  7  8  1  0  0  0
  7  9  1  0  0  0
  9 10  2  0  0  0
 10 11  1  0  0  0
 11 12  2  0  0  0
 12 13  1  0  0  0
 13 14  2  0  0  0
 14 15  1  0  0  0
 14  9  1  0  0  0
 15  6  1  0  0  0
 24 25  1  0  0  0
  8 16  1  0  0  0
  8 17  1  0  0  0
M  END
>  <minimizedAffinity>
-6.77849

>  <minimizedRMSD>
0.88711

$$$$
ChemDiv-G756-2252 MCULE-4999853355 MolPort-010-744-723 PubChem-50802567 ZINC000033268645 ZINC33268645


 28 30  0  0  0  0  0  0  0  0999 V2000
   15.5949   -8.1480   17.0689 C   0  0  0  0  0  0  0  0  0  0  0  0
   15.7429   -8.2056   15.6747 C   0  0  0  0  0  0  0  0  0  0  0  0
   16.5521   -9.1800   15.0821 C   0  0  0  0  0  0  0  0  0  0  0  0
   17.2213  -10.1076   15.8959 C   0  0  0  0  0  0  0  0  0  0  0  0
   17.0790  -10.0556   17.2846 C   0  0  0  0  0  0  0  0  0  0  0  0
   16.2682   -9.0782   17.8676 C   0  0  0  0  0  0  0  0  0  0  0  0
   13.4131   -7.3176   18.1291 C   0  0  0  0  0  0  0  0  0  0  0  0
   12.8091   -8.4138   17.9902 O   0  0  0  0  0  0  0  0  0  0  0  0
   14.7741   -7.1590   17.7049 N   0  0  0  0  0  0  0  0  0  0  0  0
   15.1874   -6.2803   17.8670 H   0  0  0  0  0  0  0  0  0  0  0  0
   12.7012   -6.1697   18.7619 C   0  0  0  0  0  0  0  0  0  0  0  0
   12.8494   -6.9870   21.0930 C   0  0  0  0  0  0  0  0  0  0  0  0
   13.2564   -5.8774   20.1470 C   0  0  0  0  0  0  0  0  0  0  0  0
   12.7129   -4.5589   20.6650 C   0  0  0  0  0  0  0  0  0  0  0  0
   16.6727   -9.2039   13.6905 O   0  0  0  0  0  0  0  0  0  0  0  0
   17.5467  -10.0954   13.0107 C   0  0  0  0  0  0  0  0  0  0  0  0
   17.5501   -9.7794   11.5580 C   0  0  0  0  0  0  0  0  0  0  0  0
   16.5065  -10.2172   10.7481 C   0  0  0  0  0  0  0  0  0  0  0  0
   16.5207   -9.8835    9.3947 C   0  0  0  0  0  0  0  0  0  0  0  0
   15.5778  -10.2831    8.6576 O   0  0  0  0  0  0  0  0  0  0  0  0
   17.5447   -9.1322    8.8828 N   0  0  0  0  0  0  0  0  0  0  0  0
   17.5576   -8.8057    7.5559 C   0  0  0  0  0  0  0  0  0  0  0  0
   18.5927   -8.0385    7.0197 C   0  0  0  0  0  0  0  0  0  0  0  0
   18.5959   -7.6275    5.3187 Cl  0  0  0  0  0  0  0  0  0  0  0  0
   19.6227   -7.6016    7.8501 C   0  0  0  0  0  0  0  0  0  0  0  0
   19.6091   -7.9351    9.2031 C   0  0  0  0  0  0  0  0  0  0  0  0
   18.5599   -8.7053    9.7107 C   0  0  0  0  0  0  0  0  0  0  0  0
   18.5489   -9.0287   11.0296 N   0  0  0  0  0  0  0  0  0  0  0  0
 12 13  1  0  0  0
 13 14  1  0  0  0
 13 11  1  0  0  0
 11  7  1  0  0  0
  7  8  2  0  0  0
  7  9  1  0  0  0
  9  1  1  0  0  0
  1  2  2  0  0  0
  2  3  1  0  0  0
  3 15  1  0  0  0
  3  4  2  0  0  0
 15 16  1  0  0  0
 16 17  1  0  0  0
 17 18  2  0  0  0
 18 19  1  0  0  0
 19 20  2  0  0  0
 19 21  1  0  0  0
 21 22  1  0  0  0
 22 23  2  0  0  0
 23 24  1  0  0  0
 23 25  1  0  0  0
 25 26  2  0  0  0
 26 27  1  0  0  0
 27 28  2  0  0  0
 27 21  1  0  0  0
 28 17  1  0  0  0
  4  5  1  0  0  0
  5  6  2  0  0  0
  6  1  1  0  0  0
  9 10  1  0  0  0
M  END
>  <minimizedAffinity>
-6.77845

>  <minimizedRMSD>
1.78802

$$$$
ChemDiv-C679-4053 MCULE-8174971434 MolPort-007-655-772 PubChem-20874201 ZINC000009858710


 30 33  0  0  0  0  0  0  0  0999 V2000
   16.5064   -9.7712   15.0321 C   0  0  0  0  0  0  0  0  0  0  0  0
   17.2191  -10.5630   15.9467 C   0  0  0  0  0  0  0  0  0  0  0  0
   17.1913  -10.2602   17.3106 C   0  0  0  0  0  0  0  0  0  0  0  0
   16.4524   -9.1659   17.7684 C   0  0  0  0  0  0  0  0  0  0  0  0
   15.7388   -8.3703   16.8669 C   0  0  0  0  0  0  0  0  0  0  0  0
   15.7697   -8.6780   15.4989 C   0  0  0  0  0  0  0  0  0  0  0  0
   14.9910   -7.2565   17.3618 N   0  0  0  0  0  0  0  0  0  0  0  0
   15.3393   -6.3509   17.1946 H   0  0  0  0  0  0  0  0  0  0  0  0
   13.5044   -7.4138   18.2404 S   0  0  0  0  0  0  0  0  0  0  0  0
   12.9624   -8.8041   18.0625 O   0  0  0  0  0  0  0  0  0  0  0  0
   12.5151   -6.4041   17.7300 O   0  0  0  0  0  0  0  0  0  0  0  0
   13.7980   -7.1233   19.9446 C   0  0  0  0  0  0  0  0  0  0  0  0
   12.8137   -6.5084   20.7267 C   0  0  0  0  0  0  0  0  0  0  0  0
   13.0419   -6.2765   22.0865 C   0  0  0  0  0  0  0  0  0  0  0  0
   14.2546   -6.6596   22.6672 C   0  0  0  0  0  0  0  0  0  0  0  0
   15.2393   -7.2748   21.8882 C   0  0  0  0  0  0  0  0  0  0  0  0
   15.0111   -7.5067   20.5284 C   0  0  0  0  0  0  0  0  0  0  0  0
   16.5133  -10.0464   13.6624 O   0  0  0  0  0  0  0  0  0  0  0  0
   17.6847  -10.4520   12.9666 C   0  0  0  0  0  0  0  0  0  0  0  0
   17.4898   -9.0210    9.0051 N   0  0  0  0  0  0  0  0  0  0  0  0
   17.5670   -8.4932    7.7858 N   0  0  0  0  0  0  0  0  0  0  0  0
   18.7113   -7.7901    7.6089 C   0  0  0  0  0  0  0  0  0  0  0  0
   19.6899   -7.7996    8.9948 S   0  0  0  0  0  0  0  0  0  0  0  0
   18.5525   -8.7458    9.7905 C   0  0  0  0  0  0  0  0  0  0  0  0
   18.6355   -9.2032   11.0637 N   0  0  0  0  0  0  0  0  0  0  0  0
   17.6228   -9.9674   11.5625 C   0  0  0  0  0  0  0  0  0  0  0  0
   16.5002  -10.2625   10.7712 C   0  0  0  0  0  0  0  0  0  0  0  0
   16.4522   -9.7707    9.4620 C   0  0  0  0  0  0  0  0  0  0  0  0
   15.4610  -10.0204    8.7258 O   0  0  0  0  0  0  0  0  0  0  0  0
   19.0549   -7.0959    6.3409 C   0  0  0  0  0  0  0  0  0  0  0  0
 20 21  1  0  0  0
 21 22  2  0  0  0
 22 23  1  0  0  0
 23 24  1  0  0  0
 24 25  2  0  0  0
 25 26  1  0  0  0
 26 19  1  0  0  0
 19 18  1  0  0  0
 18  1  1  0  0  0
  1  2  2  0  0  0
  2  3  1  0  0  0
  3  4  2  0  0  0
  4  5  1  0  0  0
  5  6  2  0  0  0
  5  7  1  0  0  0
  7  9  1  0  0  0
  9 12  1  0  0  0
 12 13  2  0  0  0
 13 14  1  0  0  0
 14 15  2  0  0  0
 15 16  1  0  0  0
 16 17  2  0  0  0
  9 10  2  0  0  0
  9 11  2  0  0  0
 26 27  2  0  0  0
 27 28  1  0  0  0
 28 29  2  0  0  0
 22 30  1  0  0  0
 24 20  1  0  0  0
  6  1  1  0  0  0
 17 12  1  0  0  0
 28 20  1  0  0  0
  7  8  1  0  0  0
M  END
>  <minimizedAffinity>
-6.75364

>  <minimizedRMSD>
1.65550

$$$$
ChemDiv-G756-0556 MCULE-7328953746 MolPort-007-879-266 PubChem-22580453 ZINC000021099836 ZINC21099836


 27 29  0  0  0  0  0  0  0  0999 V2000
   17.3364   -9.6350   13.7758 O   0  0  0  0  0  0  0  0  0  0  0  0
   16.5756   -9.2903   17.3804 C   0  0  0  0  0  0  0  0  0  0  0  0
   16.6387   -9.0371   16.0016 C   0  0  0  0  0  0  0  0  0  0  0  0
   17.2958   -9.9232   15.1421 C   0  0  0  0  0  0  0  0  0  0  0  0
   17.8968  -11.0766   15.6703 C   0  0  0  0  0  0  0  0  0  0  0  0
   17.8378  -11.3348   17.0418 C   0  0  0  0  0  0  0  0  0  0  0  0
   17.1789  -10.4435   17.8927 C   0  0  0  0  0  0  0  0  0  0  0  0
   14.7282   -7.6281   18.0187 C   0  0  0  0  0  0  0  0  0  0  0  0
   14.1567   -7.6809   16.8976 O   0  0  0  0  0  0  0  0  0  0  0  0
   15.9091   -8.4002   18.2858 N   0  0  0  0  0  0  0  0  0  0  0  0
   16.3019   -8.3090   19.1839 H   0  0  0  0  0  0  0  0  0  0  0  0
   12.7817   -6.2541   18.6775 C   0  0  0  0  0  0  0  0  0  0  0  0
   14.1592   -6.7447   19.0788 C   0  0  0  0  0  0  0  0  0  0  0  0
   14.0774   -7.4858   20.3993 C   0  0  0  0  0  0  0  0  0  0  0  0
   17.9351  -10.5058   12.8249 C   0  0  0  0  0  0  0  0  0  0  0  0
   17.6186  -10.0362   11.4504 C   0  0  0  0  0  0  0  0  0  0  0  0
   16.3813  -10.3231   10.8846 C   0  0  0  0  0  0  0  0  0  0  0  0
   16.1011   -9.8474    9.6052 C   0  0  0  0  0  0  0  0  0  0  0  0
   14.9803  -10.1111    9.0892 O   0  0  0  0  0  0  0  0  0  0  0  0
   17.0317   -9.1055    8.9273 N   0  0  0  0  0  0  0  0  0  0  0  0
   16.7493   -8.6425    7.6731 C   0  0  0  0  0  0  0  0  0  0  0  0
   17.6789   -7.8826    6.9636 C   0  0  0  0  0  0  0  0  0  0  0  0
   18.9102   -7.5936    7.5456 C   0  0  0  0  0  0  0  0  0  0  0  0
   19.2045   -8.0626    8.8244 C   0  0  0  0  0  0  0  0  0  0  0  0
   20.5295   -7.7404    9.4275 C   0  0  0  0  0  0  0  0  0  0  0  0
   18.2478   -8.8269    9.5141 C   0  0  0  0  0  0  0  0  0  0  0  0
   18.5206   -9.2920   10.7636 N   0  0  0  0  0  0  0  0  0  0  0  0
 12 13  1  0  0  0
 13 14  1  0  0  0
 13  8  1  0  0  0
  8  9  2  0  0  0
  8 10  1  0  0  0
 10  2  1  0  0  0
  2  3  2  0  0  0
  3  4  1  0  0  0
  4  1  1  0  0  0
  4  5  2  0  0  0
  1 15  1  0  0  0
 15 16  1  0  0  0
 16 17  2  0  0  0
 17 18  1  0  0  0
 18 19  2  0  0  0
 18 20  1  0  0  0
 20 21  1  0  0  0
 21 22  2  0  0  0
 22 23  1  0  0  0
 23 24  2  0  0  0
 24 25  1  0  0  0
 24 26  1  0  0  0
 26 27  2  0  0  0
 26 20  1  0  0  0
 27 16  1  0  0  0
  5  6  1  0  0  0
  6  7  2  0  0  0
  7  2  1  0  0  0
 10 11  1  0  0  0
M  END
>  <minimizedAffinity>
-6.75291

>  <minimizedRMSD>
0.98884

$$$$
ChemDiv-D549-0030 MCULE-6551720262 MolPort-009-676-618 PubChem-52991761 ZINC000064370045 ZINC64370045


 31 34  0  0  0  0  0  0  0  0999 V2000
   18.9506  -10.4393   13.0743 C   0  0  0  0  0  0  0  0  0  0  0  0
   17.5424  -10.0748   13.0994 N   0  0  0  0  0  0  0  0  0  0  0  0
   16.6874  -10.2170   14.1264 C   0  0  0  0  0  0  0  0  0  0  0  0
   15.4224   -9.9413   13.7585 N   0  0  0  0  0  0  0  0  0  0  0  0
   15.4584   -9.6207   12.4728 N   0  0  0  0  0  0  0  0  0  0  0  0
   16.7458   -9.6963   12.0794 C   0  0  0  0  0  0  0  0  0  0  0  0
   17.1742   -9.4545   10.6904 C   0  0  0  0  0  0  0  0  0  0  0  0
   18.2582   -8.6772   10.2579 C   0  0  0  0  0  0  0  0  0  0  0  0
   19.1043   -7.9339   11.1309 N   0  0  0  0  0  0  0  0  0  0  0  0
   18.3563   -8.6083    8.8651 C   0  0  0  0  0  0  0  0  0  0  0  0
   19.3047   -7.9104    8.1179 C   0  0  0  0  0  0  0  0  0  0  0  0
   19.2153   -7.9595    6.7178 C   0  0  0  0  0  0  0  0  0  0  0  0
   18.1820   -8.6966    6.1070 C   0  0  0  0  0  0  0  0  0  0  0  0
   17.2644   -9.3631    6.8660 N   0  0  0  0  0  0  0  0  0  0  0  0
   17.3603   -9.3146    8.2177 C   0  0  0  0  0  0  0  0  0  0  0  0
   16.3315  -10.0277    9.3338 S   0  0  0  0  0  0  0  0  0  0  0  0
   18.9980   -8.0148   12.1063 H   0  0  0  0  0  0  0  0  0  0  0  0
   19.7952   -7.3395   10.7587 H   0  0  0  0  0  0  0  0  0  0  0  0
   17.1475  -10.7544   15.7739 S   0  0  0  0  0  0  0  0  0  0  0  0
   17.5782   -9.0701   16.3140 C   0  0  0  0  0  0  0  0  0  0  0  0
   16.3499   -8.2911   16.6364 C   0  0  0  0  0  0  0  0  0  0  0  0
   15.7877   -7.6270   15.7261 O   0  0  0  0  0  0  0  0  0  0  0  0
   15.8368   -8.3016   17.9754 N   0  0  0  0  0  0  0  0  0  0  0  0
   16.3523   -8.8129   18.6402 H   0  0  0  0  0  0  0  0  0  0  0  0
   14.6500   -7.6450   18.4496 C   0  0  0  0  0  0  0  0  0  0  0  0
   13.5161   -7.5070   17.6333 C   0  0  0  0  0  0  0  0  0  0  0  0
   12.3685   -6.8696   18.1111 C   0  0  0  0  0  0  0  0  0  0  0  0
   12.3425   -6.3638   19.4121 C   0  0  0  0  0  0  0  0  0  0  0  0
   13.4636   -6.4962   20.2344 C   0  0  0  0  0  0  0  0  0  0  0  0
   14.6149   -7.1336   19.7605 C   0  0  0  0  0  0  0  0  0  0  0  0
   15.7915   -7.2577   20.6671 C   0  0  0  0  0  0  0  0  0  0  0  0
  1  2  1  0  0  0
  2  3  1  0  0  0
  3 19  1  0  0  0
 19 20  1  0  0  0
 20 21  1  0  0  0
 21 22  2  0  0  0
 21 23  1  0  0  0
 23 25  1  0  0  0
 25 26  2  0  0  0
 26 27  1  0  0  0
 27 28  2  0  0  0
 28 29  1  0  0  0
 29 30  2  0  0  0
 30 31  1  0  0  0
  3  4  2  0  0  0
  4  5  1  0  0  0
  5  6  2  0  0  0
  6  7  1  0  0  0
  7  8  2  0  0  0
  8  9  1  0  0  0
  8 10  1  0  0  0
 10 11  2  0  0  0
 11 12  1  0  0  0
 12 13  2  0  0  0
 13 14  1  0  0  0
 14 15  2  0  0  0
 15 16  1  0  0  0
  6  2  1  0  0  0
 16  7  1  0  0  0
 30 25  1  0  0  0
 15 10  1  0  0  0
 23 24  1  0  0  0
  9 17  1  0  0  0
  9 18  1  0  0  0
M  END
>  <minimizedAffinity>
-6.75174

>  <minimizedRMSD>
0.96586

$$$$
ChemDiv-C679-4021 MCULE-4239170138 MolPort-007-655-751 PubChem-20874190 ZINC000013367858


 33 36  0  0  0  0  0  0  0  0999 V2000
   17.3958  -10.2893   13.9866 C   0  0  0  0  0  0  0  0  0  0  0  0
   17.9876  -11.5446   14.1967 C   0  0  0  0  0  0  0  0  0  0  0  0
   18.1006  -12.0609   15.4898 C   0  0  0  0  0  0  0  0  0  0  0  0
   17.6239  -11.3270   16.5791 C   0  0  0  0  0  0  0  0  0  0  0  0
   17.0333  -10.0742   16.3847 C   0  0  0  0  0  0  0  0  0  0  0  0
   16.9219   -9.5621   15.0830 C   0  0  0  0  0  0  0  0  0  0  0  0
   16.5501   -9.3550   17.5268 N   0  0  0  0  0  0  0  0  0  0  0  0
   15.7024   -8.1995   17.5174 C   0  0  0  0  0  0  0  0  0  0  0  0
   15.3291   -7.6704   16.4371 O   0  0  0  0  0  0  0  0  0  0  0  0
   16.8296   -9.6897   18.4094 H   0  0  0  0  0  0  0  0  0  0  0  0
   15.2305   -7.6316   18.8118 C   0  0  0  0  0  0  0  0  0  0  0  0
   14.0840   -6.8124   18.6029 O   0  0  0  0  0  0  0  0  0  0  0  0
   12.7961   -7.3261   18.4138 C   0  0  0  0  0  0  0  0  0  0  0  0
   11.8871   -6.6036   17.6358 C   0  0  0  0  0  0  0  0  0  0  0  0
   10.5941   -7.0904   17.4266 C   0  0  0  0  0  0  0  0  0  0  0  0
   10.1966   -8.3048   17.9944 C   0  0  0  0  0  0  0  0  0  0  0  0
   11.1046   -9.0366   18.7817 C   0  0  0  0  0  0  0  0  0  0  0  0
   10.7254  -10.3359   19.4082 C   0  0  0  0  0  0  0  0  0  0  0  0
   12.3960   -8.5432   18.9876 C   0  0  0  0  0  0  0  0  0  0  0  0
    8.8090   -8.7923   17.7471 C   0  0  0  0  0  0  0  0  0  0  0  0
   17.2671   -9.7438   12.7069 O   0  0  0  0  0  0  0  0  0  0  0  0
   18.3180   -9.0325   12.0663 C   0  0  0  0  0  0  0  0  0  0  0  0
   17.7777   -9.1679    7.8865 N   0  0  0  0  0  0  0  0  0  0  0  0
   17.7248   -9.1006    6.5584 N   0  0  0  0  0  0  0  0  0  0  0  0
   18.6748   -8.2768    6.0541 C   0  0  0  0  0  0  0  0  0  0  0  0
   19.6354   -7.5861    7.2702 S   0  0  0  0  0  0  0  0  0  0  0  0
   18.7517   -8.4120    8.4363 C   0  0  0  0  0  0  0  0  0  0  0  0
   18.9441   -8.3616    9.7769 N   0  0  0  0  0  0  0  0  0  0  0  0
   18.1383   -9.0995   10.5921 C   0  0  0  0  0  0  0  0  0  0  0  0
   17.1108   -9.8889   10.0489 C   0  0  0  0  0  0  0  0  0  0  0  0
   16.9444   -9.9132    8.6596 C   0  0  0  0  0  0  0  0  0  0  0  0
   16.0350  -10.6139    8.1412 O   0  0  0  0  0  0  0  0  0  0  0  0
   18.8419   -8.0169    4.6006 C   0  0  0  0  0  0  0  0  0  0  0  0
 23 24  1  0  0  0
 24 25  2  0  0  0
 25 26  1  0  0  0
 26 27  1  0  0  0
 27 28  2  0  0  0
 28 29  1  0  0  0
 29 22  1  0  0  0
 22 21  1  0  0  0
 21  1  1  0  0  0
  1  2  2  0  0  0
  2  3  1  0  0  0
  3  4  2  0  0  0
  4  5  1  0  0  0
  5  6  2  0  0  0
  5  7  1  0  0  0
  7  8  1  0  0  0
  8 11  1  0  0  0
 11 12  1  0  0  0
 12 13  1  0  0  0
 13 14  2  0  0  0
 14 15  1  0  0  0
 15 16  2  0  0  0
 16 17  1  0  0  0
 17 18  1  0  0  0
 17 19  2  0  0  0
 16 20  1  0  0  0
  8  9  2  0  0  0
 29 30  2  0  0  0
 30 31  1  0  0  0
 31 32  2  0  0  0
 25 33  1  0  0  0
 27 23  1  0  0  0
  6  1  1  0  0  0
 19 13  1  0  0  0
 31 23  1  0  0  0
  7 10  1  0  0  0
M  END
>  <minimizedAffinity>
-6.73644

>  <minimizedRMSD>
1.49337

$$$$
ChemDiv-G756-0780 MCULE-4448682974 MolPort-010-744-667 PubChem-50802611 ZINC000033268585 ZINC33268585


 30 32  0  0  0  0  0  0  0  0999 V2000
   16.3417   -8.9773   17.3053 C   0  0  0  0  0  0  0  0  0  0  0  0
   16.8951  -10.0693   17.9741 C   0  0  0  0  0  0  0  0  0  0  0  0
   17.4876  -11.1085   17.2562 C   0  0  0  0  0  0  0  0  0  0  0  0
   17.5361  -11.0740   15.8591 C   0  0  0  0  0  0  0  0  0  0  0  0
   18.1924  -12.2253   15.1782 C   0  0  0  0  0  0  0  0  0  0  0  0
   16.9762   -9.9687   15.1649 C   0  0  0  0  0  0  0  0  0  0  0  0
   16.3880   -8.9369   15.9057 C   0  0  0  0  0  0  0  0  0  0  0  0
   14.3391   -7.7187   18.2986 C   0  0  0  0  0  0  0  0  0  0  0  0
   13.4797   -8.4974   17.8069 O   0  0  0  0  0  0  0  0  0  0  0  0
   15.7422   -7.9270   18.0757 N   0  0  0  0  0  0  0  0  0  0  0  0
   16.3562   -7.2819   18.4953 H   0  0  0  0  0  0  0  0  0  0  0  0
   13.8782   -6.5602   19.1244 C   0  0  0  0  0  0  0  0  0  0  0  0
   12.1971   -4.7222   19.2705 C   0  0  0  0  0  0  0  0  0  0  0  0
   12.5813   -6.0046   18.5568 C   0  0  0  0  0  0  0  0  0  0  0  0
   13.6873   -6.9743   20.5790 C   0  0  0  0  0  0  0  0  0  0  0  0
   14.9730   -6.7804   21.3608 C   0  0  0  0  0  0  0  0  0  0  0  0
   16.9669   -9.8237   13.7683 O   0  0  0  0  0  0  0  0  0  0  0  0
   17.9033  -10.4045   12.8719 C   0  0  0  0  0  0  0  0  0  0  0  0
   17.5937   -9.9769   11.4824 C   0  0  0  0  0  0  0  0  0  0  0  0
   16.3613  -10.2863   10.9174 C   0  0  0  0  0  0  0  0  0  0  0  0
   16.0872   -9.8490    9.6232 C   0  0  0  0  0  0  0  0  0  0  0  0
   14.9711  -10.1333    9.1076 O   0  0  0  0  0  0  0  0  0  0  0  0
   17.0190   -9.1231    8.9294 N   0  0  0  0  0  0  0  0  0  0  0  0
   16.7428   -8.6985    7.6604 C   0  0  0  0  0  0  0  0  0  0  0  0
   17.6732   -7.9545    6.9353 C   0  0  0  0  0  0  0  0  0  0  0  0
   18.8990   -7.6419    7.5168 C   0  0  0  0  0  0  0  0  0  0  0  0
   19.1872   -8.0724    8.8104 C   0  0  0  0  0  0  0  0  0  0  0  0
   20.5070   -7.7268    9.4123 C   0  0  0  0  0  0  0  0  0  0  0  0
   18.2301   -8.8218    9.5156 C   0  0  0  0  0  0  0  0  0  0  0  0
   18.4967   -9.2488   10.7800 N   0  0  0  0  0  0  0  0  0  0  0  0
 13 14  1  0  0  0
 14 12  1  0  0  0
 12 15  1  0  0  0
 12  8  1  0  0  0
 15 16  1  0  0  0
  8  9  2  0  0  0
  8 10  1  0  0  0
 10  1  1  0  0  0
  1  2  2  0  0  0
  2  3  1  0  0  0
  3  4  2  0  0  0
  4  5  1  0  0  0
  4  6  1  0  0  0
  6 17  1  0  0  0
  6  7  2  0  0  0
 17 18  1  0  0  0
 18 19  1  0  0  0
 19 20  2  0  0  0
 20 21  1  0  0  0
 21 22  2  0  0  0
 21 23  1  0  0  0
 23 24  1  0  0  0
 24 25  2  0  0  0
 25 26  1  0  0  0
 26 27  2  0  0  0
 27 28  1  0  0  0
 27 29  1  0  0  0
 29 30  2  0  0  0
 29 23  1  0  0  0
 30 19  1  0  0  0
  7  1  1  0  0  0
 10 11  1  0  0  0
M  END
>  <minimizedAffinity>
-6.72393

>  <minimizedRMSD>
1.37152

$$$$
ChemDiv-C679-6516 MCULE-1326042763 MolPort-007-656-263 PubChem-20874400 ZINC000009858824


 30 32  0  0  0  0  0  0  0  0999 V2000
   17.3547   -9.6682   13.7419 O   0  0  0  0  0  0  0  0  0  0  0  0
   17.3185   -9.9383   15.1122 C   0  0  0  0  0  0  0  0  0  0  0  0
   17.9438  -11.0710   15.6570 C   0  0  0  0  0  0  0  0  0  0  0  0
   17.8886  -11.3113   17.0320 C   0  0  0  0  0  0  0  0  0  0  0  0
   17.2093  -10.4228   17.8696 C   0  0  0  0  0  0  0  0  0  0  0  0
   16.5815   -9.2904   17.3406 C   0  0  0  0  0  0  0  0  0  0  0  0
   16.6412   -9.0549   15.9586 C   0  0  0  0  0  0  0  0  0  0  0  0
   15.8954   -8.4020   18.2329 N   0  0  0  0  0  0  0  0  0  0  0  0
   14.7148   -7.6375   17.9446 C   0  0  0  0  0  0  0  0  0  0  0  0
   14.1553   -7.7046   16.8183 O   0  0  0  0  0  0  0  0  0  0  0  0
   16.2731   -8.3064   19.1371 H   0  0  0  0  0  0  0  0  0  0  0  0
   14.1277   -6.7472   18.9929 C   0  0  0  0  0  0  0  0  0  0  0  0
   14.0610   -7.4625   20.3372 C   0  0  0  0  0  0  0  0  0  0  0  0
   14.9678   -6.7832   21.3464 C   0  0  0  0  0  0  0  0  0  0  0  0
   12.7417   -6.2912   18.5646 C   0  0  0  0  0  0  0  0  0  0  0  0
   12.4025   -4.9562   19.2004 C   0  0  0  0  0  0  0  0  0  0  0  0
   17.9877  -10.5308   12.8060 C   0  0  0  0  0  0  0  0  0  0  0  0
   17.4736   -8.9450    8.9331 N   0  0  0  0  0  0  0  0  0  0  0  0
   17.4557   -8.3766    7.7298 N   0  0  0  0  0  0  0  0  0  0  0  0
   18.5935   -7.6852    7.4775 C   0  0  0  0  0  0  0  0  0  0  0  0
   19.6944   -7.7740    8.7665 S   0  0  0  0  0  0  0  0  0  0  0  0
   18.6082   -8.7213    9.6291 C   0  0  0  0  0  0  0  0  0  0  0  0
   18.7939   -9.2291   10.8720 N   0  0  0  0  0  0  0  0  0  0  0  0
   17.8117   -9.9904   11.4322 C   0  0  0  0  0  0  0  0  0  0  0  0
   16.6167  -10.2331   10.7347 C   0  0  0  0  0  0  0  0  0  0  0  0
   16.4642   -9.6916    9.4536 C   0  0  0  0  0  0  0  0  0  0  0  0
   15.4067   -9.8949    8.8000 O   0  0  0  0  0  0  0  0  0  0  0  0
   18.8580   -6.9886    6.1902 C   0  0  0  0  0  0  0  0  0  0  0  0
   20.1826   -7.4514    5.6177 C   0  0  0  0  0  0  0  0  0  0  0  0
   20.6954   -6.4199    4.6355 C   0  0  0  0  0  0  0  0  0  0  0  0
 18 19  1  0  0  0
 19 20  2  0  0  0
 20 21  1  0  0  0
 21 22  1  0  0  0
 22 23  2  0  0  0
 23 24  1  0  0  0
 24 17  1  0  0  0
 17  1  1  0  0  0
  1  2  1  0  0  0
  2  3  2  0  0  0
  3  4  1  0  0  0
  4  5  2  0  0  0
  5  6  1  0  0  0
  6  7  2  0  0  0
  6  8  1  0  0  0
  8  9  1  0  0  0
  9 12  1  0  0  0
 12 13  1  0  0  0
 13 14  1  0  0  0
 12 15  1  0  0  0
 15 16  1  0  0  0
  9 10  2  0  0  0
 24 25  2  0  0  0
 25 26  1  0  0  0
 26 27  2  0  0  0
 20 28  1  0  0  0
 28 29  1  0  0  0
 29 30  1  0  0  0
 22 18  1  0  0  0
  7  2  1  0  0  0
 26 18  1  0  0  0
  8 11  1  0  0  0
M  END
>  <minimizedAffinity>
-6.72321

>  <minimizedRMSD>
1.13798

$$$$
ChemDiv-C679-5816 MCULE-2934227311 MolPort-007-656-155 PubChem-20874350 ZINC000013368388 ZINC13368388


 29 32  0  0  0  0  0  0  0  0999 V2000
   17.9333   -9.7302   11.3216 C   0  0  0  0  0  0  0  0  0  0  0  0
   16.7312  -10.1130   10.7041 C   0  0  0  0  0  0  0  0  0  0  0  0
   16.5251   -9.7700    9.3634 C   0  0  0  0  0  0  0  0  0  0  0  0
   15.4591  -10.1017    8.7798 O   0  0  0  0  0  0  0  0  0  0  0  0
   17.4918   -9.0742    8.7086 N   0  0  0  0  0  0  0  0  0  0  0  0
   17.4186   -8.6854    7.4378 N   0  0  0  0  0  0  0  0  0  0  0  0
   18.5235   -8.0053    7.0472 C   0  0  0  0  0  0  0  0  0  0  0  0
   19.6574   -7.8593    8.3076 S   0  0  0  0  0  0  0  0  0  0  0  0
   18.6342   -8.7124    9.3294 C   0  0  0  0  0  0  0  0  0  0  0  0
   18.8706   -9.0254   10.6268 N   0  0  0  0  0  0  0  0  0  0  0  0
   18.6899   -7.4547    5.6698 C   0  0  0  0  0  0  0  0  0  0  0  0
   19.9883   -6.6389    5.5565 C   0  0  0  0  0  0  0  0  0  0  0  0
   21.1078   -7.4478    4.9046 C   0  0  0  0  0  0  0  0  0  0  0  0
   20.7234   -7.8955    3.4879 C   0  0  0  0  0  0  0  0  0  0  0  0
   19.2217   -8.1615    3.3104 C   0  0  0  0  0  0  0  0  0  0  0  0
   18.5662   -8.5726    4.6250 C   0  0  0  0  0  0  0  0  0  0  0  0
   18.1649  -10.0572   12.7533 C   0  0  0  0  0  0  0  0  0  0  0  0
   17.1189   -9.5069   13.5430 O   0  0  0  0  0  0  0  0  0  0  0  0
   16.3269   -8.9026   17.1067 C   0  0  0  0  0  0  0  0  0  0  0  0
   16.4433   -8.7279   15.7191 C   0  0  0  0  0  0  0  0  0  0  0  0
   17.0217   -9.7194   14.9205 C   0  0  0  0  0  0  0  0  0  0  0  0
   17.4891  -10.9001   15.5188 C   0  0  0  0  0  0  0  0  0  0  0  0
   17.3765  -11.0806   16.8994 C   0  0  0  0  0  0  0  0  0  0  0  0
   16.7970  -10.0842   17.6892 C   0  0  0  0  0  0  0  0  0  0  0  0
   13.9110   -6.5541   19.0390 C   0  0  0  0  0  0  0  0  0  0  0  0
   14.3403   -7.6352   18.1146 C   0  0  0  0  0  0  0  0  0  0  0  0
   13.4686   -8.2965   17.4914 O   0  0  0  0  0  0  0  0  0  0  0  0
   15.7386   -7.9037   17.9510 N   0  0  0  0  0  0  0  0  0  0  0  0
   16.3593   -7.3447   18.4720 H   0  0  0  0  0  0  0  0  0  0  0  0
 25 26  1  0  0  0
 26 27  2  0  0  0
 26 28  1  0  0  0
 28 19  1  0  0  0
 19 20  2  0  0  0
 20 21  1  0  0  0
 21 18  1  0  0  0
 21 22  2  0  0  0
 18 17  1  0  0  0
 17  1  1  0  0  0
  1  2  2  0  0  0
  2  3  1  0  0  0
  3  4  2  0  0  0
  3  5  1  0  0  0
  5  6  1  0  0  0
  6  7  2  0  0  0
  7  8  1  0  0  0
  7 11  1  0  0  0
  8  9  1  0  0  0
  9 10  2  0  0  0
  9  5  1  0  0  0
 10  1  1  0  0  0
 11 12  1  0  0  0
 12 13  1  0  0  0
 13 14  1  0  0  0
 14 15  1  0  0  0
 15 16  1  0  0  0
 16 11  1  0  0  0
 22 23  1  0  0  0
 23 24  2  0  0  0
 24 19  1  0  0  0
 28 29  1  0  0  0
M  END
>  <minimizedAffinity>
-6.71863

>  <minimizedRMSD>
1.54845

$$$$
ChemDiv-C679-6528 MCULE-9871901918 MolPort-007-656-273 PubChem-20874407 ZINC000013368561


 34 37  0  0  0  0  0  0  0  0999 V2000
   17.3940  -10.0380   14.7382 C   0  0  0  0  0  0  0  0  0  0  0  0
   17.9669  -11.2220   15.2260 C   0  0  0  0  0  0  0  0  0  0  0  0
   17.9280  -11.5107   16.5918 C   0  0  0  0  0  0  0  0  0  0  0  0
   17.3180  -10.6190   17.4775 C   0  0  0  0  0  0  0  0  0  0  0  0
   16.7428   -9.4359   17.0062 C   0  0  0  0  0  0  0  0  0  0  0  0
   16.7859   -9.1515   15.6327 C   0  0  0  0  0  0  0  0  0  0  0  0
   16.1235   -8.5486   17.9467 N   0  0  0  0  0  0  0  0  0  0  0  0
   14.9852   -7.7078   17.7135 C   0  0  0  0  0  0  0  0  0  0  0  0
   14.3964   -7.6983   16.6008 O   0  0  0  0  0  0  0  0  0  0  0  0
   16.5211   -8.5127   18.8466 H   0  0  0  0  0  0  0  0  0  0  0  0
   14.4591   -6.8630   18.8214 C   0  0  0  0  0  0  0  0  0  0  0  0
   14.3414   -7.6372   20.0100 O   0  0  0  0  0  0  0  0  0  0  0  0
   15.0392   -7.3410   21.1898 C   0  0  0  0  0  0  0  0  0  0  0  0
   16.2982   -6.7182   21.1530 C   0  0  0  0  0  0  0  0  0  0  0  0
   16.9808   -6.4325   22.3370 C   0  0  0  0  0  0  0  0  0  0  0  0
   16.4098   -6.7628   23.5688 C   0  0  0  0  0  0  0  0  0  0  0  0
   15.1563   -7.3762   23.6157 C   0  0  0  0  0  0  0  0  0  0  0  0
   14.4696   -7.6653   22.4324 C   0  0  0  0  0  0  0  0  0  0  0  0
   12.9021   -8.4503   22.5265 Cl  0  0  0  0  0  0  0  0  0  0  0  0
   17.4186   -9.7182   13.3786 O   0  0  0  0  0  0  0  0  0  0  0  0
   18.1747  -10.4584   12.4292 C   0  0  0  0  0  0  0  0  0  0  0  0
   17.6088   -8.7708    8.6064 N   0  0  0  0  0  0  0  0  0  0  0  0
   17.5768   -8.1741    7.4172 N   0  0  0  0  0  0  0  0  0  0  0  0
   18.7306   -7.5163    7.1483 C   0  0  0  0  0  0  0  0  0  0  0  0
   19.8620   -7.6687    8.4055 S   0  0  0  0  0  0  0  0  0  0  0  0
   18.7688   -8.5999    9.2762 C   0  0  0  0  0  0  0  0  0  0  0  0
   18.9702   -9.1399   10.5031 N   0  0  0  0  0  0  0  0  0  0  0  0
   17.9779   -9.8804   11.0738 C   0  0  0  0  0  0  0  0  0  0  0  0
   16.7570  -10.0691   10.4034 C   0  0  0  0  0  0  0  0  0  0  0  0
   16.5886   -9.4951    9.1384 C   0  0  0  0  0  0  0  0  0  0  0  0
   15.5075   -9.6500    8.5094 O   0  0  0  0  0  0  0  0  0  0  0  0
   18.9775   -6.7831    5.8739 C   0  0  0  0  0  0  0  0  0  0  0  0
   20.1334   -7.4029    5.1071 C   0  0  0  0  0  0  0  0  0  0  0  0
   19.6224   -8.3891    4.0759 C   0  0  0  0  0  0  0  0  0  0  0  0
 22 23  1  0  0  0
 23 24  2  0  0  0
 24 25  1  0  0  0
 25 26  1  0  0  0
 26 27  2  0  0  0
 27 28  1  0  0  0
 28 21  1  0  0  0
 21 20  1  0  0  0
 20  1  1  0  0  0
  1  2  2  0  0  0
  2  3  1  0  0  0
  3  4  2  0  0  0
  4  5  1  0  0  0
  5  6  2  0  0  0
  5  7  1  0  0  0
  7  8  1  0  0  0
  8 11  1  0  0  0
 11 12  1  0  0  0
 12 13  1  0  0  0
 13 14  2  0  0  0
 14 15  1  0  0  0
 15 16  2  0  0  0
 16 17  1  0  0  0
 17 18  2  0  0  0
 18 19  1  0  0  0
  8  9  2  0  0  0
 28 29  2  0  0  0
 29 30  1  0  0  0
 30 31  2  0  0  0
 24 32  1  0  0  0
 32 33  1  0  0  0
 33 34  1  0  0  0
 26 22  1  0  0  0
  6  1  1  0  0  0
 18 13  1  0  0  0
 30 22  1  0  0  0
  7 10  1  0  0  0
M  END
>  <minimizedAffinity>
-6.69239

>  <minimizedRMSD>
1.89578

$$$$
ChemDiv-G357-1772 CHEMBL1438820 MCULE-7042706576 MolPort-007-847-652 PubChem-16027383 ZINC000008606902


 34 37  0  0  0  0  0  0  0  0999 V2000
   18.0840  -10.5121   14.5005 C   0  0  0  0  0  0  0  0  0  0  0  0
   16.7362  -10.6859   14.8408 C   0  0  0  0  0  0  0  0  0  0  0  0
   16.2068  -10.0564   15.9708 C   0  0  0  0  0  0  0  0  0  0  0  0
   17.0190   -9.2438   16.7754 C   0  0  0  0  0  0  0  0  0  0  0  0
   18.3640   -9.0700   16.4344 C   0  0  0  0  0  0  0  0  0  0  0  0
   18.8950   -9.6994   15.3046 C   0  0  0  0  0  0  0  0  0  0  0  0
   16.5142   -8.5868   17.9454 N   0  0  0  0  0  0  0  0  0  0  0  0
   15.4216   -7.6613   18.0076 C   0  0  0  0  0  0  0  0  0  0  0  0
   14.7885   -7.3253   16.9719 O   0  0  0  0  0  0  0  0  0  0  0  0
   16.9657   -8.7931   18.7956 H   0  0  0  0  0  0  0  0  0  0  0  0
   14.9978   -7.1193   19.3290 C   0  0  0  0  0  0  0  0  0  0  0  0
   13.6992   -6.5454   19.2275 O   0  0  0  0  0  0  0  0  0  0  0  0
   12.5247   -7.2690   18.9661 C   0  0  0  0  0  0  0  0  0  0  0  0
   11.7975   -6.9200   17.8210 C   0  0  0  0  0  0  0  0  0  0  0  0
   10.6262   -7.6013   17.4814 C   0  0  0  0  0  0  0  0  0  0  0  0
   10.1624   -8.6384   18.2910 C   0  0  0  0  0  0  0  0  0  0  0  0
   10.8635   -8.9852   19.4479 C   0  0  0  0  0  0  0  0  0  0  0  0
   12.0378   -8.3095   19.7985 C   0  0  0  0  0  0  0  0  0  0  0  0
   12.6907   -8.6881   21.0839 C   0  0  0  0  0  0  0  0  0  0  0  0
   18.6367  -11.1799   13.3114 C   0  0  0  0  0  0  0  0  0  0  0  0
   19.0358  -12.3751   13.3850 O   0  0  0  0  0  0  0  0  0  0  0  0
   18.7147  -10.4846   12.1029 O   0  0  0  0  0  0  0  0  0  0  0  0
   17.6384   -9.6958   11.6177 C   0  0  0  0  0  0  0  0  0  0  0  0
   19.0496   -8.1805    8.5409 C   0  0  0  0  0  0  0  0  0  0  0  0
   20.2171   -7.1446    7.9426 S   0  0  0  0  0  0  0  0  0  0  0  0
   19.7261   -7.3340    6.3337 C   0  0  0  0  0  0  0  0  0  0  0  0
   18.6442   -8.2188    6.3285 C   0  0  0  0  0  0  0  0  0  0  0  0
   17.9735   -8.6008    5.0516 C   0  0  0  0  0  0  0  0  0  0  0  0
   18.2683   -8.6856    7.5603 N   0  0  0  0  0  0  0  0  0  0  0  0
   17.2510   -9.5484    7.8639 C   0  0  0  0  0  0  0  0  0  0  0  0
   17.0348   -9.9016    9.2004 C   0  0  0  0  0  0  0  0  0  0  0  0
   17.8722   -9.3644   10.1872 C   0  0  0  0  0  0  0  0  0  0  0  0
   18.8674   -8.5011    9.8453 N   0  0  0  0  0  0  0  0  0  0  0  0
   16.5024  -10.0233    6.9682 O   0  0  0  0  0  0  0  0  0  0  0  0
 24 25  1  0  0  0
 25 26  1  0  0  0
 26 27  2  0  0  0
 27 28  1  0  0  0
 27 29  1  0  0  0
 29 30  1  0  0  0
 30 31  1  0  0  0
 31 32  2  0  0  0
 32 23  1  0  0  0
 23 22  1  0  0  0
 22 20  1  0  0  0
 20 21  2  0  0  0
 20  1  1  0  0  0
  1  2  2  0  0  0
  2  3  1  0  0  0
  3  4  2  0  0  0
  4  5  1  0  0  0
  5  6  2  0  0  0
  4  7  1  0  0  0
  7  8  1  0  0  0
  8 11  1  0  0  0
 11 12  1  0  0  0
 12 13  1  0  0  0
 13 14  2  0  0  0
 14 15  1  0  0  0
 15 16  2  0  0  0
 16 17  1  0  0  0
 17 18  2  0  0  0
 18 19  1  0  0  0
  8  9  2  0  0  0
 32 33  1  0  0  0
 30 34  2  0  0  0
 29 24  1  0  0  0
  6  1  1  0  0  0
 18 13  1  0  0  0
 33 24  2  0  0  0
  7 10  1  0  0  0
M  END
>  <minimizedAffinity>
-6.68287

>  <minimizedRMSD>
2.01387

$$$$
ChemDiv-G357-1259 MCULE-9228013860 MolPort-007-847-465 PubChem-20953094 ZINC000015771976 ZINC15771976


 30 33  0  0  0  0  0  0  0  0999 V2000
   17.8606  -10.4373   14.1388 C   0  0  0  0  0  0  0  0  0  0  0  0
   18.4563  -11.5156   14.4137 O   0  0  0  0  0  0  0  0  0  0  0  0
   15.7689   -8.2887   17.2008 C   0  0  0  0  0  0  0  0  0  0  0  0
   15.8170   -7.7924   15.8898 C   0  0  0  0  0  0  0  0  0  0  0  0
   16.5002   -8.4941   14.8928 C   0  0  0  0  0  0  0  0  0  0  0  0
   17.1445   -9.7010   15.1928 C   0  0  0  0  0  0  0  0  0  0  0  0
   17.0966  -10.1967   16.5031 C   0  0  0  0  0  0  0  0  0  0  0  0
   16.4125   -9.4938   17.4992 C   0  0  0  0  0  0  0  0  0  0  0  0
   13.6555   -7.4199   18.3727 C   0  0  0  0  0  0  0  0  0  0  0  0
   12.8715   -7.8873   17.5036 O   0  0  0  0  0  0  0  0  0  0  0  0
   15.0761   -7.5987   18.2498 N   0  0  0  0  0  0  0  0  0  0  0  0
   15.6324   -7.2060   18.9609 H   0  0  0  0  0  0  0  0  0  0  0  0
   14.0404   -6.5971   20.7150 C   0  0  0  0  0  0  0  0  0  0  0  0
   13.0766   -6.6809   19.5435 C   0  0  0  0  0  0  0  0  0  0  0  0
   12.6655   -5.2812   19.1286 C   0  0  0  0  0  0  0  0  0  0  0  0
   17.8750   -9.9380   12.8346 O   0  0  0  0  0  0  0  0  0  0  0  0
   16.7108   -9.9254   12.0217 C   0  0  0  0  0  0  0  0  0  0  0  0
   17.0875   -9.6110   10.6184 C   0  0  0  0  0  0  0  0  0  0  0  0
   16.4513  -10.2785    9.5586 C   0  0  0  0  0  0  0  0  0  0  0  0
   16.8002   -9.9423    8.2460 C   0  0  0  0  0  0  0  0  0  0  0  0
   16.2489  -10.5233    7.2736 O   0  0  0  0  0  0  0  0  0  0  0  0
   17.7379   -8.9795    8.0432 N   0  0  0  0  0  0  0  0  0  0  0  0
   18.1536   -8.5638    6.8493 N   0  0  0  0  0  0  0  0  0  0  0  0
   19.0991   -7.5955    6.9455 C   0  0  0  0  0  0  0  0  0  0  0  0
   19.4353   -7.1978    8.5634 S   0  0  0  0  0  0  0  0  0  0  0  0
   18.3273   -8.3486    9.0806 C   0  0  0  0  0  0  0  0  0  0  0  0
   18.0149   -8.6444   10.3658 N   0  0  0  0  0  0  0  0  0  0  0  0
   19.7009   -6.9119    5.7621 C   0  0  0  0  0  0  0  0  0  0  0  0
   20.9907   -7.6081    5.3684 C   0  0  0  0  0  0  0  0  0  0  0  0
   19.7279   -7.8578    4.5756 C   0  0  0  0  0  0  0  0  0  0  0  0
 13 14  1  0  0  0
 14 15  1  0  0  0
 14  9  1  0  0  0
  9 10  2  0  0  0
  9 11  1  0  0  0
 11  3  1  0  0  0
  3  4  2  0  0  0
  4  5  1  0  0  0
  5  6  2  0  0  0
  6  7  1  0  0  0
  6  1  1  0  0  0
  7  8  2  0  0  0
  8  3  1  0  0  0
  1  2  2  0  0  0
  1 16  1  0  0  0
 16 17  1  0  0  0
 17 18  1  0  0  0
 18 19  2  0  0  0
 19 20  1  0  0  0
 20 21  2  0  0  0
 20 22  1  0  0  0
 22 23  1  0  0  0
 23 24  2  0  0  0
 24 25  1  0  0  0
 24 28  1  0  0  0
 25 26  1  0  0  0
 26 27  2  0  0  0
 26 22  1  0  0  0
 27 18  1  0  0  0
 28 29  1  0  0  0
 29 30  1  0  0  0
 30 28  1  0  0  0
 11 12  1  0  0  0
M  END
>  <minimizedAffinity>
-6.68122

>  <minimizedRMSD>
1.47428

$$$$
ChemDiv-C679-4362 MCULE-4017343029 MolPort-007-655-847 PubChem-20874245 ZINC000013368067


 27 29  0  0  0  0  0  0  0  0999 V2000
   16.8457  -10.3568   13.8240 O   0  0  0  0  0  0  0  0  0  0  0  0
   17.3220   -9.7401   14.9838 C   0  0  0  0  0  0  0  0  0  0  0  0
   18.6775   -9.4101   15.1395 C   0  0  0  0  0  0  0  0  0  0  0  0
   19.1207   -8.7940   16.3122 C   0  0  0  0  0  0  0  0  0  0  0  0
   18.2134   -8.5044   17.3349 C   0  0  0  0  0  0  0  0  0  0  0  0
   16.8600   -8.8275   17.1935 C   0  0  0  0  0  0  0  0  0  0  0  0
   16.4218   -9.4464   16.0127 C   0  0  0  0  0  0  0  0  0  0  0  0
   15.9604   -8.5142   18.2655 N   0  0  0  0  0  0  0  0  0  0  0  0
   14.7682   -7.7229   18.1816 C   0  0  0  0  0  0  0  0  0  0  0  0
   14.4017   -7.2109   17.0884 O   0  0  0  0  0  0  0  0  0  0  0  0
   16.1850   -8.8808   19.1512 H   0  0  0  0  0  0  0  0  0  0  0  0
   13.9569   -7.5093   19.4168 C   0  0  0  0  0  0  0  0  0  0  0  0
   13.1120   -6.2561   19.2904 C   0  0  0  0  0  0  0  0  0  0  0  0
   14.8552   -7.4067   20.6345 C   0  0  0  0  0  0  0  0  0  0  0  0
   17.7000  -11.0170   12.8994 C   0  0  0  0  0  0  0  0  0  0  0  0
   17.4279   -9.0749    9.1668 N   0  0  0  0  0  0  0  0  0  0  0  0
   17.4831   -8.3933    8.0251 N   0  0  0  0  0  0  0  0  0  0  0  0
   18.6523   -7.7215    7.8903 C   0  0  0  0  0  0  0  0  0  0  0  0
   19.6741   -7.9426    9.2278 S   0  0  0  0  0  0  0  0  0  0  0  0
   18.5282   -8.9451    9.9375 C   0  0  0  0  0  0  0  0  0  0  0  0
   18.6357   -9.5666   11.1372 N   0  0  0  0  0  0  0  0  0  0  0  0
   17.6094  -10.3505   11.5737 C   0  0  0  0  0  0  0  0  0  0  0  0
   16.4483  -10.4973   10.7968 C   0  0  0  0  0  0  0  0  0  0  0  0
   16.3756   -9.8375    9.5650 C   0  0  0  0  0  0  0  0  0  0  0  0
   15.3494   -9.9511    8.8434 O   0  0  0  0  0  0  0  0  0  0  0  0
   18.9621   -6.8451    6.7289 C   0  0  0  0  0  0  0  0  0  0  0  0
   20.0034   -7.5062    5.8483 C   0  0  0  0  0  0  0  0  0  0  0  0
 16 17  1  0  0  0
 17 18  2  0  0  0
 18 19  1  0  0  0
 19 20  1  0  0  0
 20 21  2  0  0  0
 21 22  1  0  0  0
 22 15  1  0  0  0
 15  1  1  0  0  0
  1  2  1  0  0  0
  2  3  2  0  0  0
  3  4  1  0  0  0
  4  5  2  0  0  0
  5  6  1  0  0  0
  6  7  2  0  0  0
  6  8  1  0  0  0
  8  9  1  0  0  0
  9 12  1  0  0  0
 12 13  1  0  0  0
 12 14  1  0  0  0
  9 10  2  0  0  0
 22 23  2  0  0  0
 23 24  1  0  0  0
 24 25  2  0  0  0
 18 26  1  0  0  0
 26 27  1  0  0  0
 20 16  1  0  0  0
  7  2  1  0  0  0
 24 16  1  0  0  0
  8 11  1  0  0  0
M  END
>  <minimizedAffinity>
-6.66887

>  <minimizedRMSD>
1.52226

$$$$
ChemDiv-G756-0125 MCULE-1563573065 MolPort-010-686-753 PubChem-50802110 ZINC000033268505 ZINC33268505


 27 29  0  0  0  0  0  0  0  0999 V2000
   16.6044   -9.5148   17.1741 C   0  0  0  0  0  0  0  0  0  0  0  0
   16.6780   -9.1422   15.8232 C   0  0  0  0  0  0  0  0  0  0  0  0
   17.3784   -9.9281   14.9026 C   0  0  0  0  0  0  0  0  0  0  0  0
   18.0127  -11.1014   15.3407 C   0  0  0  0  0  0  0  0  0  0  0  0
   17.9425  -11.4789   16.6838 C   0  0  0  0  0  0  0  0  0  0  0  0
   17.2399  -10.6873   17.5960 C   0  0  0  0  0  0  0  0  0  0  0  0
   14.7629   -7.8767   17.8953 C   0  0  0  0  0  0  0  0  0  0  0  0
   14.3028   -7.7437   16.7275 O   0  0  0  0  0  0  0  0  0  0  0  0
   15.8912   -8.7314   18.1404 N   0  0  0  0  0  0  0  0  0  0  0  0
   16.2085   -8.7850   19.0708 H   0  0  0  0  0  0  0  0  0  0  0  0
   13.2499   -8.0868   19.8365 C   0  0  0  0  0  0  0  0  0  0  0  0
   14.1362   -7.1398   19.0506 C   0  0  0  0  0  0  0  0  0  0  0  0
   13.2889   -5.9668   18.5826 C   0  0  0  0  0  0  0  0  0  0  0  0
   15.2236   -6.6104   19.9656 C   0  0  0  0  0  0  0  0  0  0  0  0
   17.4272   -9.5232   13.5664 O   0  0  0  0  0  0  0  0  0  0  0  0
   18.3931  -10.0191   12.6488 C   0  0  0  0  0  0  0  0  0  0  0  0
   18.0039   -9.6454   11.2635 C   0  0  0  0  0  0  0  0  0  0  0  0
   16.7901  -10.0813   10.7404 C   0  0  0  0  0  0  0  0  0  0  0  0
   16.4376   -9.6948    9.4484 C   0  0  0  0  0  0  0  0  0  0  0  0
   15.3399  -10.0930    8.9703 O   0  0  0  0  0  0  0  0  0  0  0  0
   17.2749   -8.8946    8.7177 N   0  0  0  0  0  0  0  0  0  0  0  0
   16.9286   -8.5172    7.4508 C   0  0  0  0  0  0  0  0  0  0  0  0
   17.7694   -7.6998    6.6932 C   0  0  0  0  0  0  0  0  0  0  0  0
   18.9751   -7.2660    7.2411 C   0  0  0  0  0  0  0  0  0  0  0  0
   19.3281   -7.6511    8.5331 C   0  0  0  0  0  0  0  0  0  0  0  0
   18.4658   -8.4706    9.2654 C   0  0  0  0  0  0  0  0  0  0  0  0
   18.8124   -8.8455   10.5239 N   0  0  0  0  0  0  0  0  0  0  0  0
 11 12  1  0  0  0
 12 13  1  0  0  0
 12 14  1  0  0  0
 12  7  1  0  0  0
  7  8  2  0  0  0
  7  9  1  0  0  0
  9  1  1  0  0  0
  1  2  2  0  0  0
  2  3  1  0  0  0
  3 15  1  0  0  0
  3  4  2  0  0  0
 15 16  1  0  0  0
 16 17  1  0  0  0
 17 18  2  0  0  0
 18 19  1  0  0  0
 19 20  2  0  0  0
 19 21  1  0  0  0
 21 22  1  0  0  0
 22 23  2  0  0  0
 23 24  1  0  0  0
 24 25  2  0  0  0
 25 26  1  0  0  0
 26 27  2  0  0  0
 26 21  1  0  0  0
 27 17  1  0  0  0
  4  5  1  0  0  0
  5  6  2  0  0  0
  6  1  1  0  0  0
  9 10  1  0  0  0
M  END
>  <minimizedAffinity>
-6.65177

>  <minimizedRMSD>
0.77713

$$$$
ChemDiv-Y040-2821 MCULE-2750613797 MolPort-002-532-155 PubChem-16404753 ZINC000008790956 ZINC08790956


 28 30  0  0  0  0  0  0  0  0999 V2000
   16.9948   -9.9261   12.0739 C   0  0  0  0  0  0  0  0  0  0  0  0
   18.1531  -10.3175   11.7652 O   0  0  0  0  0  0  0  0  0  0  0  0
   16.4879  -10.1046   13.4037 N   0  0  0  0  0  0  0  0  0  0  0  0
   15.5757   -9.7743   13.5711 H   0  0  0  0  0  0  0  0  0  0  0  0
   17.1610  -10.7112   14.5197 C   0  0  0  0  0  0  0  0  0  0  0  0
   17.2098  -10.0493   15.7738 C   0  0  0  0  0  0  0  0  0  0  0  0
   17.8759  -10.6681   16.8440 C   0  0  0  0  0  0  0  0  0  0  0  0
   18.4842  -11.9139   16.6897 C   0  0  0  0  0  0  0  0  0  0  0  0
   18.4356  -12.5628   15.4580 C   0  0  0  0  0  0  0  0  0  0  0  0
   17.7789  -11.9647   14.3828 C   0  0  0  0  0  0  0  0  0  0  0  0
   16.5857   -8.7237   16.0128 C   0  0  0  0  0  0  0  0  0  0  0  0
   16.0508   -8.4066   17.2955 N   0  0  0  0  0  0  0  0  0  0  0  0
   16.5158   -7.8609   15.0984 O   0  0  0  0  0  0  0  0  0  0  0  0
   16.0952   -9.0669   18.0243 H   0  0  0  0  0  0  0  0  0  0  0  0
   15.6371   -7.5272   17.4525 H   0  0  0  0  0  0  0  0  0  0  0  0
   14.7276   -9.8776   11.0222 C   0  0  0  0  0  0  0  0  0  0  0  0
   16.1183   -9.2600   11.0523 C   0  0  0  0  0  0  0  0  0  0  0  0
   16.7251   -9.2191    9.7157 N   0  0  0  0  0  0  0  0  0  0  0  0
   16.3058  -10.0901    8.7500 C   0  0  0  0  0  0  0  0  0  0  0  0
   16.8569  -10.0702    7.5094 N   0  0  0  0  0  0  0  0  0  0  0  0
   17.8362   -9.1870    7.1969 C   0  0  0  0  0  0  0  0  0  0  0  0
   18.3922   -9.1814    5.9144 C   0  0  0  0  0  0  0  0  0  0  0  0
   19.4026   -8.2696    5.5940 C   0  0  0  0  0  0  0  0  0  0  0  0
   19.8594   -7.3617    6.5546 C   0  0  0  0  0  0  0  0  0  0  0  0
   19.3072   -7.3624    7.8391 C   0  0  0  0  0  0  0  0  0  0  0  0
   18.2932   -8.2744    8.1675 C   0  0  0  0  0  0  0  0  0  0  0  0
   17.7116   -8.3102    9.4430 C   0  0  0  0  0  0  0  0  0  0  0  0
   18.0996   -7.5055   10.3362 O   0  0  0  0  0  0  0  0  0  0  0  0
 17 16  1  0  0  0
 17 18  1  0  0  0
 17  1  1  0  0  0
 18 19  1  0  0  0
 19 20  2  0  0  0
 20 21  1  0  0  0
 21 22  2  0  0  0
 22 23  1  0  0  0
 23 24  2  0  0  0
 24 25  1  0  0  0
 25 26  2  0  0  0
 26 27  1  0  0  0
 26 21  1  0  0  0
 27 28  2  0  0  0
 27 18  1  0  0  0
  1  2  2  0  0  0
  1  3  1  0  0  0
  3  5  1  0  0  0
  5  6  2  0  0  0
  6  7  1  0  0  0
  6 11  1  0  0  0
  7  8  2  0  0  0
  8  9  1  0  0  0
  9 10  2  0  0  0
 10  5  1  0  0  0
 11 12  1  0  0  0
 11 13  2  0  0  0
  3  4  1  0  0  0
 12 14  1  0  0  0
 12 15  1  0  0  0
M  END
>  <minimizedAffinity>
-6.64794

>  <minimizedRMSD>
1.00018

$$$$
ChemDiv-G357-4897 MCULE-5561394157 MolPort-010-772-436 PubChem-50794179 ZINC000041089628 ZINC41089628


 33 36  0  0  0  0  0  0  0  0999 V2000
   16.4413   -9.6308   14.8066 C   0  0  0  0  0  0  0  0  0  0  0  0
   15.9124   -8.6404   15.6795 C   0  0  0  0  0  0  0  0  0  0  0  0
   15.0737   -7.5154   15.1565 C   0  0  0  0  0  0  0  0  0  0  0  0
   16.1277   -8.7536   17.0748 C   0  0  0  0  0  0  0  0  0  0  0  0
   16.8066   -9.8620   17.5850 C   0  0  0  0  0  0  0  0  0  0  0  0
   17.3134  -10.8377   16.7321 C   0  0  0  0  0  0  0  0  0  0  0  0
   17.1380  -10.7161   15.3555 C   0  0  0  0  0  0  0  0  0  0  0  0
   15.6347   -7.7828   18.0074 N   0  0  0  0  0  0  0  0  0  0  0  0
   14.2577   -7.6339   18.3754 C   0  0  0  0  0  0  0  0  0  0  0  0
   13.3611   -8.2465   17.7319 O   0  0  0  0  0  0  0  0  0  0  0  0
   16.2880   -7.1757   18.4243 H   0  0  0  0  0  0  0  0  0  0  0  0
   13.8854   -6.7319   19.4795 C   0  0  0  0  0  0  0  0  0  0  0  0
   14.4884   -6.8654   20.7386 C   0  0  0  0  0  0  0  0  0  0  0  0
   14.1347   -6.0097   21.7866 C   0  0  0  0  0  0  0  0  0  0  0  0
   13.1734   -5.0164   21.5826 C   0  0  0  0  0  0  0  0  0  0  0  0
   12.6949   -3.8472   23.0088 Br  0  0  0  0  0  0  0  0  0  0  0  0
   12.5684   -4.8757   20.3310 C   0  0  0  0  0  0  0  0  0  0  0  0
   12.9231   -5.7304   19.2834 C   0  0  0  0  0  0  0  0  0  0  0  0
   16.2966   -9.5960   13.3289 C   0  0  0  0  0  0  0  0  0  0  0  0
   15.2676  -10.0544   12.7634 O   0  0  0  0  0  0  0  0  0  0  0  0
   17.3250   -9.0459   12.5555 O   0  0  0  0  0  0  0  0  0  0  0  0
   18.2271   -9.8419   11.7925 C   0  0  0  0  0  0  0  0  0  0  0  0
   19.9006   -6.7365    5.3855 C   0  0  0  0  0  0  0  0  0  0  0  0
   19.3852   -7.4670    6.5736 C   0  0  0  0  0  0  0  0  0  0  0  0
   19.9262   -7.3893    7.8621 C   0  0  0  0  0  0  0  0  0  0  0  0
   19.0817   -8.2416    8.5489 C   0  0  0  0  0  0  0  0  0  0  0  0
   19.1287   -8.5755    9.8618 N   0  0  0  0  0  0  0  0  0  0  0  0
   18.1936   -9.4445   10.3542 C   0  0  0  0  0  0  0  0  0  0  0  0
   17.2147  -10.0005    9.5049 C   0  0  0  0  0  0  0  0  0  0  0  0
   17.2109   -9.6294    8.1545 C   0  0  0  0  0  0  0  0  0  0  0  0
   16.3554  -10.0973    7.3568 O   0  0  0  0  0  0  0  0  0  0  0  0
   18.1548   -8.7533    7.7331 N   0  0  0  0  0  0  0  0  0  0  0  0
   18.3478   -8.2819    6.5432 O   0  0  0  0  0  0  0  0  0  0  0  0
 23 24  1  0  0  0
 24 25  2  0  0  0
 25 26  1  0  0  0
 26 27  2  0  0  0
 27 28  1  0  0  0
 28 22  1  0  0  0
 28 29  2  0  0  0
 22 21  1  0  0  0
 21 19  1  0  0  0
 19 20  2  0  0  0
 19  1  1  0  0  0
  1  2  2  0  0  0
  2  3  1  0  0  0
  2  4  1  0  0  0
  4  8  1  0  0  0
  4  5  2  0  0  0
  8  9  1  0  0  0
  9 10  2  0  0  0
  9 12  1  0  0  0
 12 13  2  0  0  0
 13 14  1  0  0  0
 14 15  2  0  0  0
 15 16  1  0  0  0
 15 17  1  0  0  0
 17 18  2  0  0  0
 18 12  1  0  0  0
  5  6  1  0  0  0
  6  7  2  0  0  0
  7  1  1  0  0  0
 29 30  1  0  0  0
 30 31  2  0  0  0
 30 32  1  0  0  0
 32 33  1  0  0  0
 32 26  1  0  0  0
 33 24  1  0  0  0
  8 11  1  0  0  0
M  END
>  <minimizedAffinity>
-6.64688

>  <minimizedRMSD>
1.75301

$$$$
ChemDiv-F172-0150 MCULE-3841809322 MolPort-010-736-207 PubChem-50764280 ZINC000035378585 ZINC35378585


 33 36  0  0  0  0  0  0  0  0999 V2000
   16.6099   -9.2649   17.1906 C   0  0  0  0  0  0  0  0  0  0  0  0
   16.7028   -8.9840   15.8188 C   0  0  0  0  0  0  0  0  0  0  0  0
   17.3045   -9.8930   14.9429 C   0  0  0  0  0  0  0  0  0  0  0  0
   17.8194  -11.0977   15.4474 C   0  0  0  0  0  0  0  0  0  0  0  0
   17.7313  -11.3832   16.8120 C   0  0  0  0  0  0  0  0  0  0  0  0
   17.1289  -10.4681   17.6795 C   0  0  0  0  0  0  0  0  0  0  0  0
   14.8546   -7.5234   17.8657 C   0  0  0  0  0  0  0  0  0  0  0  0
   14.2674   -7.5321   16.7516 O   0  0  0  0  0  0  0  0  0  0  0  0
   15.9970   -8.3533   18.1119 N   0  0  0  0  0  0  0  0  0  0  0  0
   16.4030   -8.2908   19.0066 H   0  0  0  0  0  0  0  0  0  0  0  0
   14.3262   -6.6646   18.9626 C   0  0  0  0  0  0  0  0  0  0  0  0
   12.9191   -6.4967   18.8207 O   0  0  0  0  0  0  0  0  0  0  0  0
   10.1935   -9.6840   18.5043 C   0  0  0  0  0  0  0  0  0  0  0  0
   10.1495   -8.6150   17.6005 C   0  0  0  0  0  0  0  0  0  0  0  0
   11.0603   -7.5608   17.7164 C   0  0  0  0  0  0  0  0  0  0  0  0
   12.0237   -7.5679   18.7306 C   0  0  0  0  0  0  0  0  0  0  0  0
   12.0667   -8.6438   19.6328 C   0  0  0  0  0  0  0  0  0  0  0  0
   11.1572   -9.6984   19.5169 C   0  0  0  0  0  0  0  0  0  0  0  0
    8.2097  -10.5435   17.2998 C   0  0  0  0  0  0  0  0  0  0  0  0
    9.2389  -10.8228   18.3800 C   0  0  0  0  0  0  0  0  0  0  0  0
   17.3770   -9.5760   13.5842 O   0  0  0  0  0  0  0  0  0  0  0  0
   18.2231  -10.2716   12.6781 C   0  0  0  0  0  0  0  0  0  0  0  0
   17.9825   -9.7812   11.2953 C   0  0  0  0  0  0  0  0  0  0  0  0
   16.7642  -10.0789   10.6505 C   0  0  0  0  0  0  0  0  0  0  0  0
   16.5530   -9.5841    9.3575 C   0  0  0  0  0  0  0  0  0  0  0  0
   15.4827   -9.8240    8.7393 O   0  0  0  0  0  0  0  0  0  0  0  0
   17.5327   -8.8376    8.7944 N   0  0  0  0  0  0  0  0  0  0  0  0
   17.5532   -8.2780    7.6282 O   0  0  0  0  0  0  0  0  0  0  0  0
   18.6975   -7.6381    7.4867 C   0  0  0  0  0  0  0  0  0  0  0  0
   19.0750   -6.8747    6.2684 C   0  0  0  0  0  0  0  0  0  0  0  0
   19.4944   -7.7743    8.6287 C   0  0  0  0  0  0  0  0  0  0  0  0
   18.6787   -8.5580    9.4217 C   0  0  0  0  0  0  0  0  0  0  0  0
   18.9281   -9.0144   10.6737 N   0  0  0  0  0  0  0  0  0  0  0  0
 19 20  1  0  0  0
 20 13  1  0  0  0
 13 14  2  0  0  0
 14 15  1  0  0  0
 15 16  2  0  0  0
 16 12  1  0  0  0
 16 17  1  0  0  0
 12 11  1  0  0  0
 11  7  1  0  0  0
  7  8  2  0  0  0
  7  9  1  0  0  0
  9  1  1  0  0  0
  1  2  2  0  0  0
  2  3  1  0  0  0
  3 21  1  0  0  0
  3  4  2  0  0  0
 21 22  1  0  0  0
 22 23  1  0  0  0
 23 24  2  0  0  0
 24 25  1  0  0  0
 25 26  2  0  0  0
 25 27  1  0  0  0
 27 28  1  0  0  0
 28 29  1  0  0  0
 29 30  1  0  0  0
 29 31  2  0  0  0
 31 32  1  0  0  0
 32 33  2  0  0  0
 32 27  1  0  0  0
 33 23  1  0  0  0
  4  5  1  0  0  0
  5  6  2  0  0  0
  6  1  1  0  0  0
 17 18  2  0  0  0
 18 13  1  0  0  0
  9 10  1  0  0  0
M  END
>  <minimizedAffinity>
-6.62472

>  <minimizedRMSD>
1.53662

$$$$
ChemDiv-S022-1586 MolPort-035-696-253 PubChem-87052576 ZINC000097942106


 35 40  0  0  0  0  0  0  0  0999 V2000
   15.5478   -7.8605   18.8139 C   0  0  0  0  0  0  0  0  0  0  0  0
   14.7325   -7.3992   17.7717 C   0  0  0  0  0  0  0  0  0  0  0  0
   15.2538   -8.0829   16.6948 C   0  0  0  0  0  0  0  0  0  0  0  0
   14.8456   -8.0206   15.4050 N   0  0  0  0  0  0  0  0  0  0  0  0
   15.4818   -8.7815   14.4672 C   0  0  0  0  0  0  0  0  0  0  0  0
   16.5794   -9.6082   14.8429 C   0  0  0  0  0  0  0  0  0  0  0  0
   17.2684  -10.4966   13.8385 C   0  0  0  0  0  0  0  0  0  0  0  0
   16.9143  -10.1179   12.4735 N   0  0  0  0  0  0  0  0  0  0  0  0
   15.5082   -9.8469   12.1993 C   0  0  0  0  0  0  0  0  0  0  0  0
   15.0602   -8.6505   13.0302 C   0  0  0  0  0  0  0  0  0  0  0  0
   17.9375   -9.6882   11.5619 C   0  0  0  0  0  0  0  0  0  0  0  0
   19.0409   -9.2786   12.0140 O   0  0  0  0  0  0  0  0  0  0  0  0
   16.9588   -9.6387   16.1970 C   0  0  0  0  0  0  0  0  0  0  0  0
   17.9093  -10.3659   16.5950 O   0  0  0  0  0  0  0  0  0  0  0  0
   16.2710   -8.8623   17.0700 N   0  0  0  0  0  0  0  0  0  0  0  0
   16.4726   -8.7456   18.3677 N   0  0  0  0  0  0  0  0  0  0  0  0
   17.1565   -9.2078   18.9042 H   0  0  0  0  0  0  0  0  0  0  0  0
   17.7326   -9.6968   10.1013 C   0  0  0  0  0  0  0  0  0  0  0  0
   16.8524  -10.5133    9.4737 N   0  0  0  0  0  0  0  0  0  0  0  0
   16.8640  -10.2511    8.1697 N   0  0  0  0  0  0  0  0  0  0  0  0
   17.7460   -9.2576    7.9703 C   0  0  0  0  0  0  0  0  0  0  0  0
   18.0615   -8.6326    6.7668 C   0  0  0  0  0  0  0  0  0  0  0  0
   18.9882   -7.5743    6.8102 C   0  0  0  0  0  0  0  0  0  0  0  0
   19.5585   -7.1676    8.0374 C   0  0  0  0  0  0  0  0  0  0  0  0
   19.2144   -7.8178    9.2368 C   0  0  0  0  0  0  0  0  0  0  0  0
   18.3093   -8.8750    9.1552 C   0  0  0  0  0  0  0  0  0  0  0  0
   16.3261  -10.7014    7.4789 H   0  0  0  0  0  0  0  0  0  0  0  0
   15.2038   -6.6715   22.9177 C   0  0  0  0  0  0  0  0  0  0  0  0
   14.1470   -7.3291   22.2805 C   0  0  0  0  0  0  0  0  0  0  0  0
   14.2605   -7.7162   20.9422 C   0  0  0  0  0  0  0  0  0  0  0  0
   15.4341   -7.4500   20.2241 C   0  0  0  0  0  0  0  0  0  0  0  0
   16.4940   -6.7906   20.8625 C   0  0  0  0  0  0  0  0  0  0  0  0
   16.3807   -6.4034   22.2005 C   0  0  0  0  0  0  0  0  0  0  0  0
   15.8551   -5.2875   24.8615 C   0  0  0  0  0  0  0  0  0  0  0  0
   15.0593   -6.2974   24.2564 O   0  0  0  0  0  0  0  0  0  0  0  0
 34 35  1  0  0  0
 35 28  1  0  0  0
 28 29  2  0  0  0
 29 30  1  0  0  0
 30 31  2  0  0  0
 31 32  1  0  0  0
 32 33  2  0  0  0
 31  1  1  0  0  0
  1  2  2  0  0  0
  2  3  1  0  0  0
  3  4  2  0  0  0
  4  5  1  0  0  0
  5  6  2  0  0  0
  6  7  1  0  0  0
  7  8  1  0  0  0
  8  9  1  0  0  0
  9 10  1  0  0  0
  8 11  1  0  0  0
 11 12  2  0  0  0
 11 18  1  0  0  0
 18 19  2  0  0  0
 19 20  1  0  0  0
 20 21  1  0  0  0
 21 22  2  0  0  0
 22 23  1  0  0  0
 23 24  2  0  0  0
 24 25  1  0  0  0
 25 26  2  0  0  0
  6 13  1  0  0  0
 13 14  2  0  0  0
 13 15  1  0  0  0
 15 16  1  0  0  0
 33 28  1  0  0  0
 16  1  1  0  0  0
 15  3  1  0  0  0
 10  5  1  0  0  0
 26 18  1  0  0  0
 26 21  1  0  0  0
 20 27  1  0  0  0
 16 17  1  0  0  0
M  END
>  <minimizedAffinity>
-6.58186

>  <minimizedRMSD>
2.89052

$$$$
ChemDiv-D483-1469 MCULE-4004224962 MolPort-007-710-934 PubChem-20899064 ZINC000015859227


 33 36  0  0  0  0  0  0  0  0999 V2000
   16.8175  -10.9636   15.9431 C   0  0  0  0  0  0  0  0  0  0  0  0
   16.4686   -9.7628   15.2007 N   0  0  0  0  0  0  0  0  0  0  0  0
   16.4377   -9.5850   13.8691 C   0  0  0  0  0  0  0  0  0  0  0  0
   16.0816   -8.3241   13.5519 N   0  0  0  0  0  0  0  0  0  0  0  0
   15.8792   -7.6805   14.6941 N   0  0  0  0  0  0  0  0  0  0  0  0
   16.1152   -8.5609   15.6855 C   0  0  0  0  0  0  0  0  0  0  0  0
   16.7473  -10.6448   12.8603 C   0  0  0  0  0  0  0  0  0  0  0  0
   16.9865  -10.0375   11.5069 C   0  0  0  0  0  0  0  0  0  0  0  0
   15.9764  -10.0122   10.5337 C   0  0  0  0  0  0  0  0  0  0  0  0
   14.6355  -10.6140   10.7863 C   0  0  0  0  0  0  0  0  0  0  0  0
   16.2153   -9.4367    9.3298 N   0  0  0  0  0  0  0  0  0  0  0  0
   17.4159   -8.8772    9.0383 C   0  0  0  0  0  0  0  0  0  0  0  0
   17.6116   -8.2954    7.7835 C   0  0  0  0  0  0  0  0  0  0  0  0
   18.8432   -7.7195    7.4794 C   0  0  0  0  0  0  0  0  0  0  0  0
   19.0658   -7.0967    6.1486 C   0  0  0  0  0  0  0  0  0  0  0  0
   19.8653   -7.7289    8.4258 C   0  0  0  0  0  0  0  0  0  0  0  0
   19.6381   -8.3184    9.6706 C   0  0  0  0  0  0  0  0  0  0  0  0
   18.4296   -8.8836    9.9692 N   0  0  0  0  0  0  0  0  0  0  0  0
   18.2273   -9.4563   11.1965 C   0  0  0  0  0  0  0  0  0  0  0  0
   19.1533   -9.4673   12.0568 O   0  0  0  0  0  0  0  0  0  0  0  0
   15.9757   -8.1617   17.4250 S   0  0  0  0  0  0  0  0  0  0  0  0
   14.1910   -7.8234   17.2776 C   0  0  0  0  0  0  0  0  0  0  0  0
   13.6101   -7.2028   18.5099 C   0  0  0  0  0  0  0  0  0  0  0  0
   12.4493   -6.7193   18.4457 O   0  0  0  0  0  0  0  0  0  0  0  0
   14.3569   -7.1596   19.7359 N   0  0  0  0  0  0  0  0  0  0  0  0
   15.2583   -7.5549   19.7166 H   0  0  0  0  0  0  0  0  0  0  0  0
   13.9282   -6.6014   20.9853 C   0  0  0  0  0  0  0  0  0  0  0  0
   12.6213   -6.1275   21.1788 C   0  0  0  0  0  0  0  0  0  0  0  0
   12.2397   -5.5899   22.4114 C   0  0  0  0  0  0  0  0  0  0  0  0
   10.9766   -5.1348   22.5898 F   0  0  0  0  0  0  0  0  0  0  0  0
   13.1617   -5.5223   23.4592 C   0  0  0  0  0  0  0  0  0  0  0  0
   14.4645   -5.9922   23.2736 C   0  0  0  0  0  0  0  0  0  0  0  0
   14.8450   -6.5297   22.0402 C   0  0  0  0  0  0  0  0  0  0  0  0
  1  2  1  0  0  0
  2  3  1  0  0  0
  3  7  1  0  0  0
  7  8  1  0  0  0
  8  9  2  0  0  0
  9 10  1  0  0  0
  9 11  1  0  0  0
 11 12  2  0  0  0
 12 13  1  0  0  0
 13 14  2  0  0  0
 14 15  1  0  0  0
 14 16  1  0  0  0
 16 17  2  0  0  0
 17 18  1  0  0  0
 18 19  1  0  0  0
 19 20  2  0  0  0
  3  4  2  0  0  0
  4  5  1  0  0  0
  5  6  2  0  0  0
  6 21  1  0  0  0
 21 22  1  0  0  0
 22 23  1  0  0  0
 23 24  2  0  0  0
 23 25  1  0  0  0
 25 27  1  0  0  0
 27 28  2  0  0  0
 28 29  1  0  0  0
 29 30  1  0  0  0
 29 31  2  0  0  0
 31 32  1  0  0  0
 32 33  2  0  0  0
  6  2  1  0  0  0
 33 27  1  0  0  0
 19  8  1  0  0  0
 18 12  1  0  0  0
 25 26  1  0  0  0
M  END
>  <minimizedAffinity>
-6.55529

>  <minimizedRMSD>
2.62552

$$$$
ChemDiv-G357-1994 MCULE-5190015211 MolPort-007-847-723 PubChem-46343510 ZINC000021633201


 31 34  0  0  0  0  0  0  0  0999 V2000
   16.3306   -9.3745   16.1959 C   0  0  0  0  0  0  0  0  0  0  0  0
   16.7482   -9.3261   17.5332 C   0  0  0  0  0  0  0  0  0  0  0  0
   16.1065   -8.4809   18.4428 C   0  0  0  0  0  0  0  0  0  0  0  0
   15.0417   -7.6736   18.0298 C   0  0  0  0  0  0  0  0  0  0  0  0
   14.6235   -7.7222   16.6918 C   0  0  0  0  0  0  0  0  0  0  0  0
   15.2639   -8.5669   15.7812 C   0  0  0  0  0  0  0  0  0  0  0  0
   14.4073   -6.8227   18.9942 N   0  0  0  0  0  0  0  0  0  0  0  0
   13.1942   -7.0909   19.7144 C   0  0  0  0  0  0  0  0  0  0  0  0
   12.5507   -8.1569   19.5137 O   0  0  0  0  0  0  0  0  0  0  0  0
   14.8502   -5.9639   19.1825 H   0  0  0  0  0  0  0  0  0  0  0  0
   12.6951   -6.1096   20.6943 C   0  0  0  0  0  0  0  0  0  0  0  0
   12.7587   -6.3849   22.0681 C   0  0  0  0  0  0  0  0  0  0  0  0
   12.2821   -5.4565   22.9984 C   0  0  0  0  0  0  0  0  0  0  0  0
   11.7394   -4.2452   22.5617 C   0  0  0  0  0  0  0  0  0  0  0  0
   11.6728   -3.9621   21.1950 C   0  0  0  0  0  0  0  0  0  0  0  0
   12.1484   -4.8910   20.2646 C   0  0  0  0  0  0  0  0  0  0  0  0
   17.0016  -10.2630   15.2335 C   0  0  0  0  0  0  0  0  0  0  0  0
   17.5083  -11.3509   15.6243 O   0  0  0  0  0  0  0  0  0  0  0  0
   17.0745   -9.8962   13.8879 O   0  0  0  0  0  0  0  0  0  0  0  0
   18.1516  -10.3014   13.0560 C   0  0  0  0  0  0  0  0  0  0  0  0
   17.3400   -9.1255    9.0858 N   0  0  0  0  0  0  0  0  0  0  0  0
   17.2499   -8.6551    7.8131 C   0  0  0  0  0  0  0  0  0  0  0  0
   18.3794   -7.9403    7.4211 C   0  0  0  0  0  0  0  0  0  0  0  0
   19.5064   -7.8958    8.6824 S   0  0  0  0  0  0  0  0  0  0  0  0
   18.5056   -8.7950    9.6854 C   0  0  0  0  0  0  0  0  0  0  0  0
   18.7841   -9.1707   10.9577 N   0  0  0  0  0  0  0  0  0  0  0  0
   17.8707   -9.9070   11.6505 C   0  0  0  0  0  0  0  0  0  0  0  0
   16.6477  -10.2581   11.0580 C   0  0  0  0  0  0  0  0  0  0  0  0
   16.3953   -9.8520    9.7433 C   0  0  0  0  0  0  0  0  0  0  0  0
   15.3072  -10.1574    9.1861 O   0  0  0  0  0  0  0  0  0  0  0  0
   18.5681   -7.3079    6.0899 C   0  0  0  0  0  0  0  0  0  0  0  0
 21 22  1  0  0  0
 22 23  2  0  0  0
 23 24  1  0  0  0
 24 25  1  0  0  0
 25 26  2  0  0  0
 26 27  1  0  0  0
 27 20  1  0  0  0
 20 19  1  0  0  0
 19 17  1  0  0  0
 17 18  2  0  0  0
 17  1  1  0  0  0
  1  2  2  0  0  0
  2  3  1  0  0  0
  3  4  2  0  0  0
  4  5  1  0  0  0
  5  6  2  0  0  0
  4  7  1  0  0  0
  7  8  1  0  0  0
  8 11  1  0  0  0
 11 12  2  0  0  0
 12 13  1  0  0  0
 13 14  2  0  0  0
 14 15  1  0  0  0
 15 16  2  0  0  0
  8  9  2  0  0  0
 27 28  2  0  0  0
 28 29  1  0  0  0
 29 30  2  0  0  0
 23 31  1  0  0  0
 25 21  1  0  0  0
  6  1  1  0  0  0
 16 11  1  0  0  0
 29 21  1  0  0  0
  7 10  1  0  0  0
M  END
>  <minimizedAffinity>
-6.55387

>  <minimizedRMSD>
2.26438

$$$$
ChemDiv-G756-1210 MCULE-3151770858 MolPort-007-879-668 PubChem-46356444 ZINC000033068055 ZINC33068055


 30 32  0  0  0  0  0  0  0  0999 V2000
   16.6338  -10.1144   16.6662 C   0  0  0  0  0  0  0  0  0  0  0  0
   17.3735  -11.2639   16.9442 C   0  0  0  0  0  0  0  0  0  0  0  0
   18.1301  -11.8738   15.9432 C   0  0  0  0  0  0  0  0  0  0  0  0
   18.1601  -11.3454   14.6490 C   0  0  0  0  0  0  0  0  0  0  0  0
   18.9957  -12.0634   13.6460 C   0  0  0  0  0  0  0  0  0  0  0  0
   17.4123  -10.1751   14.3518 C   0  0  0  0  0  0  0  0  0  0  0  0
   16.6608   -9.5800   15.3716 C   0  0  0  0  0  0  0  0  0  0  0  0
   15.1590   -8.2659   17.6663 C   0  0  0  0  0  0  0  0  0  0  0  0
   15.1260   -7.5925   16.6015 O   0  0  0  0  0  0  0  0  0  0  0  0
   15.8713   -9.5123   17.7207 N   0  0  0  0  0  0  0  0  0  0  0  0
   15.8317  -10.0052   18.5721 H   0  0  0  0  0  0  0  0  0  0  0  0
   14.4153   -7.7525   18.8688 C   0  0  0  0  0  0  0  0  0  0  0  0
   12.4807   -6.1899   18.6137 C   0  0  0  0  0  0  0  0  0  0  0  0
   13.9926   -6.3001   18.6706 C   0  0  0  0  0  0  0  0  0  0  0  0
   15.1529   -7.9682   20.1979 C   0  0  0  0  0  0  0  0  0  0  0  0
   15.8560   -6.7113   20.6915 C   0  0  0  0  0  0  0  0  0  0  0  0
   17.3650   -9.5550   13.0928 O   0  0  0  0  0  0  0  0  0  0  0  0
   18.4878   -9.0803   12.3637 C   0  0  0  0  0  0  0  0  0  0  0  0
   18.1846   -9.1081   10.9088 C   0  0  0  0  0  0  0  0  0  0  0  0
   17.0600   -9.7838   10.4449 C   0  0  0  0  0  0  0  0  0  0  0  0
   16.7833   -9.7695    9.0787 C   0  0  0  0  0  0  0  0  0  0  0  0
   15.7660  -10.3845    8.6556 O   0  0  0  0  0  0  0  0  0  0  0  0
   17.6070   -9.0949    8.2176 N   0  0  0  0  0  0  0  0  0  0  0  0
   17.3348   -9.0818    6.8784 C   0  0  0  0  0  0  0  0  0  0  0  0
   18.1623   -8.3963    5.9872 C   0  0  0  0  0  0  0  0  0  0  0  0
   19.2777   -7.7186    6.4753 C   0  0  0  0  0  0  0  0  0  0  0  0
   20.1690   -6.9823    5.5418 C   0  0  0  0  0  0  0  0  0  0  0  0
   19.5553   -7.7318    7.8409 C   0  0  0  0  0  0  0  0  0  0  0  0
   18.7086   -8.4276    8.7069 C   0  0  0  0  0  0  0  0  0  0  0  0
   18.9806   -8.4393   10.0373 N   0  0  0  0  0  0  0  0  0  0  0  0
 13 14  1  0  0  0
 14 12  1  0  0  0
 12 15  1  0  0  0
 12  8  1  0  0  0
 15 16  1  0  0  0
  8  9  2  0  0  0
  8 10  1  0  0  0
 10  1  1  0  0  0
  1  2  2  0  0  0
  2  3  1  0  0  0
  3  4  2  0  0  0
  4  5  1  0  0  0
  4  6  1  0  0  0
  6 17  1  0  0  0
  6  7  2  0  0  0
 17 18  1  0  0  0
 18 19  1  0  0  0
 19 20  2  0  0  0
 20 21  1  0  0  0
 21 22  2  0  0  0
 21 23  1  0  0  0
 23 24  1  0  0  0
 24 25  2  0  0  0
 25 26  1  0  0  0
 26 27  1  0  0  0
 26 28  2  0  0  0
 28 29  1  0  0  0
 29 30  2  0  0  0
 29 23  1  0  0  0
 30 19  1  0  0  0
  7  1  1  0  0  0
 10 11  1  0  0  0
M  END
>  <minimizedAffinity>
-6.54854

>  <minimizedRMSD>
1.18671

$$$$
ChemDiv-C679-5590 MCULE-7536347627 MolPort-010-797-267 PubChem-53043766 ZINC000064775691


 30 33  0  0  0  0  0  0  0  0999 V2000
   17.0956   -9.8063   14.9279 C   0  0  0  0  0  0  0  0  0  0  0  0
   17.6429  -10.9520   15.5264 C   0  0  0  0  0  0  0  0  0  0  0  0
   17.5753  -11.1221   16.9112 C   0  0  0  0  0  0  0  0  0  0  0  0
   16.9616  -10.1499   17.7053 C   0  0  0  0  0  0  0  0  0  0  0  0
   16.4123   -9.0031   17.1227 C   0  0  0  0  0  0  0  0  0  0  0  0
   16.4836   -8.8388   15.7309 C   0  0  0  0  0  0  0  0  0  0  0  0
   15.7925   -8.0275   17.9712 N   0  0  0  0  0  0  0  0  0  0  0  0
   14.4166   -7.6249   17.9520 C   0  0  0  0  0  0  0  0  0  0  0  0
   13.5997   -8.1261   17.1346 O   0  0  0  0  0  0  0  0  0  0  0  0
   16.3715   -7.5888   18.6357 H   0  0  0  0  0  0  0  0  0  0  0  0
   13.9516   -6.5682   18.8944 C   0  0  0  0  0  0  0  0  0  0  0  0
   14.2696   -6.9466   20.3009 C   0  0  0  0  0  0  0  0  0  0  0  0
   13.3582   -7.7041   21.0456 C   0  0  0  0  0  0  0  0  0  0  0  0
   13.6640   -8.0752   22.3586 C   0  0  0  0  0  0  0  0  0  0  0  0
   14.8828   -7.6929   22.9274 C   0  0  0  0  0  0  0  0  0  0  0  0
   15.7967   -6.9406   22.1831 C   0  0  0  0  0  0  0  0  0  0  0  0
   15.4915   -6.5691   20.8702 C   0  0  0  0  0  0  0  0  0  0  0  0
   17.1458   -9.6051   13.5463 O   0  0  0  0  0  0  0  0  0  0  0  0
   17.9475  -10.4006   12.6832 C   0  0  0  0  0  0  0  0  0  0  0  0
   17.5554   -8.9519    8.7397 N   0  0  0  0  0  0  0  0  0  0  0  0
   17.5996   -8.3971    7.4990 C   0  0  0  0  0  0  0  0  0  0  0  0
   18.7721   -7.6807    7.2700 C   0  0  0  0  0  0  0  0  0  0  0  0
   19.7670   -7.7407    8.6374 S   0  0  0  0  0  0  0  0  0  0  0  0
   18.6591   -8.6840    9.4730 C   0  0  0  0  0  0  0  0  0  0  0  0
   18.8033   -9.1476   10.7387 N   0  0  0  0  0  0  0  0  0  0  0  0
   17.8150   -9.9090   11.2865 C   0  0  0  0  0  0  0  0  0  0  0  0
   16.6537  -10.1971   10.5530 C   0  0  0  0  0  0  0  0  0  0  0  0
   16.5401   -9.7011    9.2498 C   0  0  0  0  0  0  0  0  0  0  0  0
   15.5095   -9.9482    8.5679 O   0  0  0  0  0  0  0  0  0  0  0  0
   19.1019   -6.9661    6.0097 C   0  0  0  0  0  0  0  0  0  0  0  0
 20 21  1  0  0  0
 21 22  2  0  0  0
 22 23  1  0  0  0
 23 24  1  0  0  0
 24 25  2  0  0  0
 25 26  1  0  0  0
 26 19  1  0  0  0
 19 18  1  0  0  0
 18  1  1  0  0  0
  1  2  2  0  0  0
  2  3  1  0  0  0
  3  4  2  0  0  0
  4  5  1  0  0  0
  5  6  2  0  0  0
  5  7  1  0  0  0
  7  8  1  0  0  0
  8 11  1  0  0  0
 11 12  1  0  0  0
 12 13  2  0  0  0
 13 14  1  0  0  0
 14 15  2  0  0  0
 15 16  1  0  0  0
 16 17  2  0  0  0
  8  9  2  0  0  0
 26 27  2  0  0  0
 27 28  1  0  0  0
 28 29  2  0  0  0
 22 30  1  0  0  0
 24 20  1  0  0  0
  6  1  1  0  0  0
 17 12  1  0  0  0
 28 20  1  0  0  0
  7 10  1  0  0  0
M  END
>  <minimizedAffinity>
-6.53008

>  <minimizedRMSD>
1.98404

$$$$
ChemDiv-G756-0772 MCULE-3967979710 MolPort-010-744-663 PubChem-50802600 ZINC000033268581 ZINC33268581


 28 30  0  0  0  0  0  0  0  0999 V2000
   16.2688   -8.9796   17.2032 C   0  0  0  0  0  0  0  0  0  0  0  0
   16.8845   -9.9808   17.9543 C   0  0  0  0  0  0  0  0  0  0  0  0
   17.4965  -11.0620   17.3197 C   0  0  0  0  0  0  0  0  0  0  0  0
   17.5033  -11.1603   15.9248 C   0  0  0  0  0  0  0  0  0  0  0  0
   18.1797  -12.3499   15.3356 C   0  0  0  0  0  0  0  0  0  0  0  0
   16.8804  -10.1481   15.1473 C   0  0  0  0  0  0  0  0  0  0  0  0
   16.2725   -9.0727   15.8054 C   0  0  0  0  0  0  0  0  0  0  0  0
   14.2492   -7.7199   18.1611 C   0  0  0  0  0  0  0  0  0  0  0  0
   13.4104   -8.5836   17.7914 O   0  0  0  0  0  0  0  0  0  0  0  0
   15.6499   -7.8833   17.8898 N   0  0  0  0  0  0  0  0  0  0  0  0
   16.2472   -7.1684   18.2082 H   0  0  0  0  0  0  0  0  0  0  0  0
   13.7628   -6.7624   20.3877 C   0  0  0  0  0  0  0  0  0  0  0  0
   13.7672   -6.5113   18.8922 C   0  0  0  0  0  0  0  0  0  0  0  0
   12.3736   -6.1323   18.4298 C   0  0  0  0  0  0  0  0  0  0  0  0
   16.8241  -10.1390   13.7443 O   0  0  0  0  0  0  0  0  0  0  0  0
   17.8876  -10.4970   12.8732 C   0  0  0  0  0  0  0  0  0  0  0  0
   17.5784  -10.0371   11.4940 C   0  0  0  0  0  0  0  0  0  0  0  0
   16.3453  -10.3310   10.9226 C   0  0  0  0  0  0  0  0  0  0  0  0
   16.0717   -9.8640    9.6386 C   0  0  0  0  0  0  0  0  0  0  0  0
   14.9547  -10.1342    9.1174 O   0  0  0  0  0  0  0  0  0  0  0  0
   17.0044   -9.1239    8.9615 N   0  0  0  0  0  0  0  0  0  0  0  0
   16.7283   -8.6697    7.7028 C   0  0  0  0  0  0  0  0  0  0  0  0
   17.6602   -7.9116    6.9942 C   0  0  0  0  0  0  0  0  0  0  0  0
   18.8871   -7.6156    7.5818 C   0  0  0  0  0  0  0  0  0  0  0  0
   19.1748   -8.0757    8.8653 C   0  0  0  0  0  0  0  0  0  0  0  0
   20.4954   -7.7461    9.4746 C   0  0  0  0  0  0  0  0  0  0  0  0
   18.2161   -8.8384    9.5541 C   0  0  0  0  0  0  0  0  0  0  0  0
   18.4825   -9.2948   10.8081 N   0  0  0  0  0  0  0  0  0  0  0  0
 12 13  1  0  0  0
 13 14  1  0  0  0
 13  8  1  0  0  0
  8  9  2  0  0  0
  8 10  1  0  0  0
 10  1  1  0  0  0
  1  2  2  0  0  0
  2  3  1  0  0  0
  3  4  2  0  0  0
  4  5  1  0  0  0
  4  6  1  0  0  0
  6 15  1  0  0  0
  6  7  2  0  0  0
 15 16  1  0  0  0
 16 17  1  0  0  0
 17 18  2  0  0  0
 18 19  1  0  0  0
 19 20  2  0  0  0
 19 21  1  0  0  0
 21 22  1  0  0  0
 22 23  2  0  0  0
 23 24  1  0  0  0
 24 25  2  0  0  0
 25 26  1  0  0  0
 25 27  1  0  0  0
 27 28  2  0  0  0
 27 21  1  0  0  0
 28 17  1  0  0  0
  7  1  1  0  0  0
 10 11  1  0  0  0
M  END
>  <minimizedAffinity>
-6.52978

>  <minimizedRMSD>
1.20025

$$$$
ChemDiv-G756-0765 MCULE-9485531351 MolPort-007-879-400 PubChem-46356212 ZINC000033067906 ZINC33067906


 30 33  0  0  0  0  0  0  0  0999 V2000
   18.7822  -12.3837   13.8638 C   0  0  0  0  0  0  0  0  0  0  0  0
   18.0741  -11.5053   14.8374 C   0  0  0  0  0  0  0  0  0  0  0  0
   18.0677  -11.9164   16.1738 C   0  0  0  0  0  0  0  0  0  0  0  0
   17.4070  -11.1655   17.1458 C   0  0  0  0  0  0  0  0  0  0  0  0
   16.7357   -9.9934   16.7956 C   0  0  0  0  0  0  0  0  0  0  0  0
   16.7390   -9.5761   15.4581 C   0  0  0  0  0  0  0  0  0  0  0  0
   17.4032  -10.3090   14.4677 C   0  0  0  0  0  0  0  0  0  0  0  0
   16.0676   -9.2471   17.8222 N   0  0  0  0  0  0  0  0  0  0  0  0
   15.2696   -8.0679   17.6448 C   0  0  0  0  0  0  0  0  0  0  0  0
   15.0564   -7.5965   16.4960 O   0  0  0  0  0  0  0  0  0  0  0  0
   16.1667   -9.5783   18.7440 H   0  0  0  0  0  0  0  0  0  0  0  0
   14.6945   -7.3958   18.8147 C   0  0  0  0  0  0  0  0  0  0  0  0
   15.0738   -7.6030   20.1236 C   0  0  0  0  0  0  0  0  0  0  0  0
   14.2647   -6.7581   20.8635 C   0  0  0  0  0  0  0  0  0  0  0  0
   13.4509   -6.0962   19.9600 C   0  0  0  0  0  0  0  0  0  0  0  0
   13.7380   -6.5048   18.7479 O   0  0  0  0  0  0  0  0  0  0  0  0
   17.3477   -9.7974   13.1614 O   0  0  0  0  0  0  0  0  0  0  0  0
   18.4727   -9.4455   12.3678 C   0  0  0  0  0  0  0  0  0  0  0  0
   18.0732   -9.3815   10.9377 C   0  0  0  0  0  0  0  0  0  0  0  0
   16.8597   -9.9257   10.5300 C   0  0  0  0  0  0  0  0  0  0  0  0
   16.4955   -9.8270    9.1886 C   0  0  0  0  0  0  0  0  0  0  0  0
   15.3969  -10.3252    8.8171 O   0  0  0  0  0  0  0  0  0  0  0  0
   17.3218   -9.1969    8.2954 N   0  0  0  0  0  0  0  0  0  0  0  0
   16.9561   -9.1017    6.9823 C   0  0  0  0  0  0  0  0  0  0  0  0
   17.7782   -8.4621    6.0545 C   0  0  0  0  0  0  0  0  0  0  0  0
   18.9877   -7.9153    6.4770 C   0  0  0  0  0  0  0  0  0  0  0  0
   19.3666   -8.0091    7.8150 C   0  0  0  0  0  0  0  0  0  0  0  0
   20.6663   -7.4164    8.2457 C   0  0  0  0  0  0  0  0  0  0  0  0
   18.5168   -8.6592    8.7266 C   0  0  0  0  0  0  0  0  0  0  0  0
   18.8717   -8.7564   10.0370 N   0  0  0  0  0  0  0  0  0  0  0  0
  1  2  1  0  0  0
  2  3  2  0  0  0
  3  4  1  0  0  0
  4  5  2  0  0  0
  5  8  1  0  0  0
  5  6  1  0  0  0
  8  9  1  0  0  0
  9 10  2  0  0  0
  9 12  1  0  0  0
 12 13  2  0  0  0
 13 14  1  0  0  0
 14 15  2  0  0  0
 15 16  1  0  0  0
 16 12  1  0  0  0
  6  7  2  0  0  0
  7 17  1  0  0  0
  7  2  1  0  0  0
 17 18  1  0  0  0
 18 19  1  0  0  0
 19 20  2  0  0  0
 20 21  1  0  0  0
 21 22  2  0  0  0
 21 23  1  0  0  0
 23 24  1  0  0  0
 24 25  2  0  0  0
 25 26  1  0  0  0
 26 27  2  0  0  0
 27 28  1  0  0  0
 27 29  1  0  0  0
 29 30  2  0  0  0
 29 23  1  0  0  0
 30 19  1  0  0  0
  8 11  1  0  0  0
M  END
>  <minimizedAffinity>
-6.51898

>  <minimizedRMSD>
1.08490

$$$$
ChemDiv-G756-0764 MCULE-4304227798 MolPort-007-879-399 PubChem-46356211 ZINC000033067905 ZINC33067905


 30 33  0  0  0  0  0  0  0  0999 V2000
   18.7481  -12.3587   13.8279 C   0  0  0  0  0  0  0  0  0  0  0  0
   18.0471  -11.4943   14.8184 C   0  0  0  0  0  0  0  0  0  0  0  0
   18.0326  -11.9349   16.1454 C   0  0  0  0  0  0  0  0  0  0  0  0
   17.3977  -11.1871   17.1373 C   0  0  0  0  0  0  0  0  0  0  0  0
   16.7661   -9.9852   16.8174 C   0  0  0  0  0  0  0  0  0  0  0  0
   16.7774   -9.5387   15.4896 C   0  0  0  0  0  0  0  0  0  0  0  0
   17.4083  -10.2723   14.4782 C   0  0  0  0  0  0  0  0  0  0  0  0
   16.1237   -9.2433   17.8630 N   0  0  0  0  0  0  0  0  0  0  0  0
   15.2900   -8.0857   17.7085 C   0  0  0  0  0  0  0  0  0  0  0  0
   15.0490   -7.6094   16.5669 O   0  0  0  0  0  0  0  0  0  0  0  0
   16.2700   -9.5614   18.7832 H   0  0  0  0  0  0  0  0  0  0  0  0
   14.7104   -7.4479   18.8958 C   0  0  0  0  0  0  0  0  0  0  0  0
   15.2695   -7.4401   20.1641 C   0  0  0  0  0  0  0  0  0  0  0  0
   14.4842   -6.7499   21.0991 C   0  0  0  0  0  0  0  0  0  0  0  0
   13.3086   -6.2121   20.5798 C   0  0  0  0  0  0  0  0  0  0  0  0
   13.2605   -6.6066   18.9451 S   0  0  0  0  0  0  0  0  0  0  0  0
   17.3576   -9.7302   13.1838 O   0  0  0  0  0  0  0  0  0  0  0  0
   18.4828   -9.4111   12.3779 C   0  0  0  0  0  0  0  0  0  0  0  0
   18.0746   -9.3616   10.9495 C   0  0  0  0  0  0  0  0  0  0  0  0
   16.8614   -9.9133   10.5531 C   0  0  0  0  0  0  0  0  0  0  0  0
   16.4913   -9.8286    9.2123 C   0  0  0  0  0  0  0  0  0  0  0  0
   15.3926  -10.3329    8.8508 O   0  0  0  0  0  0  0  0  0  0  0  0
   17.3114   -9.2053    8.3095 N   0  0  0  0  0  0  0  0  0  0  0  0
   16.9411   -9.1263    6.9966 C   0  0  0  0  0  0  0  0  0  0  0  0
   17.7573   -8.4944    6.0588 C   0  0  0  0  0  0  0  0  0  0  0  0
   18.9648   -7.9370    6.4708 C   0  0  0  0  0  0  0  0  0  0  0  0
   19.3481   -8.0140    7.8083 C   0  0  0  0  0  0  0  0  0  0  0  0
   20.6456   -7.4096    8.2265 C   0  0  0  0  0  0  0  0  0  0  0  0
   18.5051   -8.6582    8.7299 C   0  0  0  0  0  0  0  0  0  0  0  0
   18.8659   -8.7415   10.0394 N   0  0  0  0  0  0  0  0  0  0  0  0
  1  2  1  0  0  0
  2  3  2  0  0  0
  3  4  1  0  0  0
  4  5  2  0  0  0
  5  8  1  0  0  0
  5  6  1  0  0  0
  8  9  1  0  0  0
  9 10  2  0  0  0
  9 12  1  0  0  0
 12 13  2  0  0  0
 13 14  1  0  0  0
 14 15  2  0  0  0
 15 16  1  0  0  0
 16 12  1  0  0  0
  6  7  2  0  0  0
  7 17  1  0  0  0
  7  2  1  0  0  0
 17 18  1  0  0  0
 18 19  1  0  0  0
 19 20  2  0  0  0
 20 21  1  0  0  0
 21 22  2  0  0  0
 21 23  1  0  0  0
 23 24  1  0  0  0
 24 25  2  0  0  0
 25 26  1  0  0  0
 26 27  2  0  0  0
 27 28  1  0  0  0
 27 29  1  0  0  0
 29 30  2  0  0  0
 29 23  1  0  0  0
 30 19  1  0  0  0
  8 11  1  0  0  0
M  END
>  <minimizedAffinity>
-6.51069

>  <minimizedRMSD>
1.03968

$$$$
ChemDiv-C679-6509 MCULE-6729039649 MolPort-007-656-258 PubChem-20874396 ZINC000013368533


 28 30  0  0  0  0  0  0  0  0999 V2000
   17.5973  -10.9318   13.0042 C   0  0  0  0  0  0  0  0  0  0  0  0
   17.4109   -9.1027    9.2097 N   0  0  0  0  0  0  0  0  0  0  0  0
   17.4925   -8.4558    8.0495 N   0  0  0  0  0  0  0  0  0  0  0  0
   18.6649   -7.7887    7.9209 C   0  0  0  0  0  0  0  0  0  0  0  0
   19.6568   -7.9710    9.2864 S   0  0  0  0  0  0  0  0  0  0  0  0
   18.4942   -8.9506   10.0004 C   0  0  0  0  0  0  0  0  0  0  0  0
   18.5741   -9.5359   11.2203 N   0  0  0  0  0  0  0  0  0  0  0  0
   17.5372  -10.3053   11.6573 C   0  0  0  0  0  0  0  0  0  0  0  0
   16.3933  -10.4744   10.8597 C   0  0  0  0  0  0  0  0  0  0  0  0
   16.3489   -9.8520    9.6072 C   0  0  0  0  0  0  0  0  0  0  0  0
   15.3387   -9.9862    8.8669 O   0  0  0  0  0  0  0  0  0  0  0  0
   19.0021   -6.9465    6.7378 C   0  0  0  0  0  0  0  0  0  0  0  0
   19.5821   -7.7946    5.6174 C   0  0  0  0  0  0  0  0  0  0  0  0
   20.8614   -7.1744    5.0873 C   0  0  0  0  0  0  0  0  0  0  0  0
   16.7488  -10.2230   13.8976 O   0  0  0  0  0  0  0  0  0  0  0  0
   17.2170   -9.6315   15.0736 C   0  0  0  0  0  0  0  0  0  0  0  0
   18.5755   -9.3285   15.2560 C   0  0  0  0  0  0  0  0  0  0  0  0
   19.0104   -8.7372   16.4444 C   0  0  0  0  0  0  0  0  0  0  0  0
   18.0920   -8.4454   17.4563 C   0  0  0  0  0  0  0  0  0  0  0  0
   16.7354   -8.7417   17.2885 C   0  0  0  0  0  0  0  0  0  0  0  0
   16.3054   -9.3358   16.0919 C   0  0  0  0  0  0  0  0  0  0  0  0
   15.8240   -8.4269   18.3501 N   0  0  0  0  0  0  0  0  0  0  0  0
   14.6013   -7.6870   18.2403 C   0  0  0  0  0  0  0  0  0  0  0  0
   14.2140   -7.2298   17.1300 O   0  0  0  0  0  0  0  0  0  0  0  0
   16.0630   -8.7530   19.2478 H   0  0  0  0  0  0  0  0  0  0  0  0
   13.7829   -7.4614   19.4687 C   0  0  0  0  0  0  0  0  0  0  0  0
   13.6270   -5.9775   19.7410 C   0  0  0  0  0  0  0  0  0  0  0  0
   12.4181   -8.1074   19.3270 C   0  0  0  0  0  0  0  0  0  0  0  0
  2  3  1  0  0  0
  3  4  2  0  0  0
  4  5  1  0  0  0
  5  6  1  0  0  0
  6  7  2  0  0  0
  7  8  1  0  0  0
  8  1  1  0  0  0
  1 15  1  0  0  0
 15 16  1  0  0  0
 16 17  2  0  0  0
 17 18  1  0  0  0
 18 19  2  0  0  0
 19 20  1  0  0  0
 20 21  2  0  0  0
 20 22  1  0  0  0
 22 23  1  0  0  0
 23 26  1  0  0  0
 26 27  1  0  0  0
 26 28  1  0  0  0
 23 24  2  0  0  0
  8  9  2  0  0  0
  9 10  1  0  0  0
 10 11  2  0  0  0
  4 12  1  0  0  0
 12 13  1  0  0  0
 13 14  1  0  0  0
  6  2  1  0  0  0
 21 16  1  0  0  0
 10  2  1  0  0  0
 22 25  1  0  0  0
M  END
>  <minimizedAffinity>
-6.50678

>  <minimizedRMSD>
1.77698

$$$$
ChemDiv-G756-0989 MCULE-7460366211 MolPort-010-686-766 PubChem-50802627 ZINC000033268610 ZINC33268610


 28 30  0  0  0  0  0  0  0  0999 V2000
   17.3828   -9.4217   13.4706 O   0  0  0  0  0  0  0  0  0  0  0  0
   17.3311   -9.8597   14.7962 C   0  0  0  0  0  0  0  0  0  0  0  0
   17.9203  -11.0693   15.1963 C   0  0  0  0  0  0  0  0  0  0  0  0
   17.8497  -11.4782   16.5302 C   0  0  0  0  0  0  0  0  0  0  0  0
   17.1912  -10.6821   17.4709 C   0  0  0  0  0  0  0  0  0  0  0  0
   16.6007   -9.4738   17.0868 C   0  0  0  0  0  0  0  0  0  0  0  0
   16.6743   -9.0698   15.7450 C   0  0  0  0  0  0  0  0  0  0  0  0
   15.9312   -8.6869   18.0813 N   0  0  0  0  0  0  0  0  0  0  0  0
   14.6932   -7.9741   17.9275 C   0  0  0  0  0  0  0  0  0  0  0  0
   14.1097   -7.9417   16.8089 O   0  0  0  0  0  0  0  0  0  0  0  0
   16.3659   -8.6289   18.9627 H   0  0  0  0  0  0  0  0  0  0  0  0
   14.1379   -7.1920   19.0898 C   0  0  0  0  0  0  0  0  0  0  0  0
   13.2467   -8.0738   19.9462 C   0  0  0  0  0  0  0  0  0  0  0  0
   15.2833   -6.6798   19.9401 C   0  0  0  0  0  0  0  0  0  0  0  0
   13.3129   -6.0068   18.6154 C   0  0  0  0  0  0  0  0  0  0  0  0
   18.4832   -9.6967   12.6137 C   0  0  0  0  0  0  0  0  0  0  0  0
   19.9577   -7.0248    5.9459 C   0  0  0  0  0  0  0  0  0  0  0  0
   19.0369   -7.7392    6.8675 C   0  0  0  0  0  0  0  0  0  0  0  0
   19.4075   -7.9594    8.1926 C   0  0  0  0  0  0  0  0  0  0  0  0
   18.5320   -8.6326    9.0479 C   0  0  0  0  0  0  0  0  0  0  0  0
   18.8952   -8.8461   10.3390 N   0  0  0  0  0  0  0  0  0  0  0  0
   18.0740   -9.5005   11.1980 C   0  0  0  0  0  0  0  0  0  0  0  0
   16.8306   -9.9505   10.7643 C   0  0  0  0  0  0  0  0  0  0  0  0
   16.4609   -9.7298    9.4384 C   0  0  0  0  0  0  0  0  0  0  0  0
   15.3359  -10.1409    9.0419 O   0  0  0  0  0  0  0  0  0  0  0  0
   17.3112   -9.0749    8.5877 N   0  0  0  0  0  0  0  0  0  0  0  0
   16.9477   -8.8589    7.2882 C   0  0  0  0  0  0  0  0  0  0  0  0
   17.8009   -8.1903    6.4086 C   0  0  0  0  0  0  0  0  0  0  0  0
 17 18  1  0  0  0
 18 19  2  0  0  0
 19 20  1  0  0  0
 20 21  2  0  0  0
 21 22  1  0  0  0
 22 16  1  0  0  0
 22 23  2  0  0  0
 16  1  1  0  0  0
  1  2  1  0  0  0
  2  3  2  0  0  0
  3  4  1  0  0  0
  4  5  2  0  0  0
  5  6  1  0  0  0
  6  8  1  0  0  0
  6  7  2  0  0  0
  8  9  1  0  0  0
  9 10  2  0  0  0
  9 12  1  0  0  0
 12 13  1  0  0  0
 12 14  1  0  0  0
 12 15  1  0  0  0
  7  2  1  0  0  0
 23 24  1  0  0  0
 24 25  2  0  0  0
 24 26  1  0  0  0
 26 27  1  0  0  0
 26 20  1  0  0  0
 27 28  2  0  0  0
 28 18  1  0  0  0
  8 11  1  0  0  0
M  END
>  <minimizedAffinity>
-6.50015

>  <minimizedRMSD>
0.89399

$$$$
ChemDiv-G756-0773 MCULE-6717289860 MolPort-010-744-664 PubChem-50802601 ZINC000033268582 ZINC33268582


 29 31  0  0  0  0  0  0  0  0999 V2000
   16.2499   -8.8767   17.2921 C   0  0  0  0  0  0  0  0  0  0  0  0
   16.8149   -9.9397   17.9971 C   0  0  0  0  0  0  0  0  0  0  0  0
   17.4138  -10.9986   17.3143 C   0  0  0  0  0  0  0  0  0  0  0  0
   17.4578  -11.0130   15.9168 C   0  0  0  0  0  0  0  0  0  0  0  0
   18.1147  -12.1860   15.2747 C   0  0  0  0  0  0  0  0  0  0  0  0
   16.8865   -9.9376   15.1858 C   0  0  0  0  0  0  0  0  0  0  0  0
   16.2903   -8.8862   15.8917 C   0  0  0  0  0  0  0  0  0  0  0  0
   14.2386   -7.6210   18.2655 C   0  0  0  0  0  0  0  0  0  0  0  0
   13.3838   -8.4182   17.7941 O   0  0  0  0  0  0  0  0  0  0  0  0
   15.6395   -7.8071   18.0273 N   0  0  0  0  0  0  0  0  0  0  0  0
   16.2456   -7.1308   18.4075 H   0  0  0  0  0  0  0  0  0  0  0  0
   13.7900   -6.4505   19.0691 C   0  0  0  0  0  0  0  0  0  0  0  0
   12.5800   -6.8223   19.9099 C   0  0  0  0  0  0  0  0  0  0  0  0
   11.6458   -4.9921   18.4982 C   0  0  0  0  0  0  0  0  0  0  0  0
   11.5126   -5.7476   19.8071 C   0  0  0  0  0  0  0  0  0  0  0  0
   16.8702   -9.8431   13.7849 O   0  0  0  0  0  0  0  0  0  0  0  0
   17.8501  -10.3834   12.9099 C   0  0  0  0  0  0  0  0  0  0  0  0
   17.5559   -9.9668   11.5137 C   0  0  0  0  0  0  0  0  0  0  0  0
   16.3305  -10.2824   10.9372 C   0  0  0  0  0  0  0  0  0  0  0  0
   16.0712   -9.8569    9.6359 C   0  0  0  0  0  0  0  0  0  0  0  0
   14.9611  -10.1464    9.1104 O   0  0  0  0  0  0  0  0  0  0  0  0
   17.0100   -9.1357    8.9470 N   0  0  0  0  0  0  0  0  0  0  0  0
   16.7479   -8.7221    7.6714 C   0  0  0  0  0  0  0  0  0  0  0  0
   17.6864   -7.9842    6.9504 C   0  0  0  0  0  0  0  0  0  0  0  0
   18.9055   -7.6664    7.5427 C   0  0  0  0  0  0  0  0  0  0  0  0
   19.1789   -8.0848    8.8436 C   0  0  0  0  0  0  0  0  0  0  0  0
   20.4913   -7.7329    9.4576 C   0  0  0  0  0  0  0  0  0  0  0  0
   18.2139   -8.8280    9.5446 C   0  0  0  0  0  0  0  0  0  0  0  0
   18.4663   -9.2440   10.8156 N   0  0  0  0  0  0  0  0  0  0  0  0
 14 15  1  0  0  0
 15 13  1  0  0  0
 13 12  1  0  0  0
 12  8  1  0  0  0
  8  9  2  0  0  0
  8 10  1  0  0  0
 10  1  1  0  0  0
  1  2  2  0  0  0
  2  3  1  0  0  0
  3  4  2  0  0  0
  4  5  1  0  0  0
  4  6  1  0  0  0
  6 16  1  0  0  0
  6  7  2  0  0  0
 16 17  1  0  0  0
 17 18  1  0  0  0
 18 19  2  0  0  0
 19 20  1  0  0  0
 20 21  2  0  0  0
 20 22  1  0  0  0
 22 23  1  0  0  0
 23 24  2  0  0  0
 24 25  1  0  0  0
 25 26  2  0  0  0
 26 27  1  0  0  0
 26 28  1  0  0  0
 28 29  2  0  0  0
 28 22  1  0  0  0
 29 18  1  0  0  0
  7  1  1  0  0  0
 10 11  1  0  0  0
M  END
>  <minimizedAffinity>
-6.48986

>  <minimizedRMSD>
1.22010

$$$$
ChemDiv-G756-0774 MCULE-6336163913 MolPort-010-744-665 PubChem-50802608 ZINC000033268583 ZINC33268583


 29 31  0  0  0  0  0  0  0  0999 V2000
   16.2727   -8.9965   17.2012 C   0  0  0  0  0  0  0  0  0  0  0  0
   16.8872   -9.9979   17.9531 C   0  0  0  0  0  0  0  0  0  0  0  0
   17.5002  -11.0790   17.3193 C   0  0  0  0  0  0  0  0  0  0  0  0
   17.5089  -11.1776   15.9246 C   0  0  0  0  0  0  0  0  0  0  0  0
   18.1866  -12.3670   15.3365 C   0  0  0  0  0  0  0  0  0  0  0  0
   16.8866  -10.1657   15.1461 C   0  0  0  0  0  0  0  0  0  0  0  0
   16.2784   -9.0900   15.8033 C   0  0  0  0  0  0  0  0  0  0  0  0
   14.2468   -7.6381   17.9932 C   0  0  0  0  0  0  0  0  0  0  0  0
   13.4048   -8.4032   17.4486 O   0  0  0  0  0  0  0  0  0  0  0  0
   15.6518   -7.9006   17.8872 N   0  0  0  0  0  0  0  0  0  0  0  0
   16.2541   -7.2614   18.3321 H   0  0  0  0  0  0  0  0  0  0  0  0
   13.8049   -6.4267   18.7689 C   0  0  0  0  0  0  0  0  0  0  0  0
   12.8169   -7.9744   20.5105 C   0  0  0  0  0  0  0  0  0  0  0  0
   12.6745   -6.6520   19.7785 C   0  0  0  0  0  0  0  0  0  0  0  0
   11.3035   -6.5289   19.1379 C   0  0  0  0  0  0  0  0  0  0  0  0
   16.8312  -10.1576   13.7430 O   0  0  0  0  0  0  0  0  0  0  0  0
   17.9000  -10.5007   12.8727 C   0  0  0  0  0  0  0  0  0  0  0  0
   17.5884  -10.0392   11.4945 C   0  0  0  0  0  0  0  0  0  0  0  0
   16.3553  -10.3348   10.9239 C   0  0  0  0  0  0  0  0  0  0  0  0
   16.0796   -9.8671    9.6407 C   0  0  0  0  0  0  0  0  0  0  0  0
   14.9629  -10.1391    9.1200 O   0  0  0  0  0  0  0  0  0  0  0  0
   17.0102   -9.1246    8.9635 N   0  0  0  0  0  0  0  0  0  0  0  0
   16.7327   -8.6706    7.7050 C   0  0  0  0  0  0  0  0  0  0  0  0
   17.6635   -7.9121    6.9953 C   0  0  0  0  0  0  0  0  0  0  0  0
   18.8911   -7.6156    7.5815 C   0  0  0  0  0  0  0  0  0  0  0  0
   19.1803   -8.0755    8.8648 C   0  0  0  0  0  0  0  0  0  0  0  0
   20.5011   -7.7448    9.4726 C   0  0  0  0  0  0  0  0  0  0  0  0
   18.2225   -8.8383    9.5547 C   0  0  0  0  0  0  0  0  0  0  0  0
   18.4910   -9.2954   10.8081 N   0  0  0  0  0  0  0  0  0  0  0  0
 13 14  1  0  0  0
 14 15  1  0  0  0
 14 12  1  0  0  0
 12  8  1  0  0  0
  8  9  2  0  0  0
  8 10  1  0  0  0
 10  1  1  0  0  0
  1  2  2  0  0  0
  2  3  1  0  0  0
  3  4  2  0  0  0
  4  5  1  0  0  0
  4  6  1  0  0  0
  6 16  1  0  0  0
  6  7  2  0  0  0
 16 17  1  0  0  0
 17 18  1  0  0  0
 18 19  2  0  0  0
 19 20  1  0  0  0
 20 21  2  0  0  0
 20 22  1  0  0  0
 22 23  1  0  0  0
 23 24  2  0  0  0
 24 25  1  0  0  0
 25 26  2  0  0  0
 26 27  1  0  0  0
 26 28  1  0  0  0
 28 29  2  0  0  0
 28 22  1  0  0  0
 29 18  1  0  0  0
  7  1  1  0  0  0
 10 11  1  0  0  0
M  END
>  <minimizedAffinity>
-6.46800

>  <minimizedRMSD>
1.70008

$$$$
ChemDiv-G357-3500 MCULE-4807220092 MolPort-007-848-013 PubChem-20953228 ZINC000015772379


 30 32  0  0  0  0  0  0  0  0999 V2000
   17.1884   -9.5782   14.1584 O   0  0  0  0  0  0  0  0  0  0  0  0
   17.3686   -9.6983   15.5382 C   0  0  0  0  0  0  0  0  0  0  0  0
   18.3065  -10.4073   15.9979 O   0  0  0  0  0  0  0  0  0  0  0  0
   16.4600   -8.9926   16.4561 C   0  0  0  0  0  0  0  0  0  0  0  0
   15.3511   -8.3001   15.9530 C   0  0  0  0  0  0  0  0  0  0  0  0
   14.4859   -7.6285   16.8208 C   0  0  0  0  0  0  0  0  0  0  0  0
   14.7181   -7.6402   18.2040 C   0  0  0  0  0  0  0  0  0  0  0  0
   15.8250   -8.3325   18.7054 C   0  0  0  0  0  0  0  0  0  0  0  0
   16.6915   -9.0048   17.8386 C   0  0  0  0  0  0  0  0  0  0  0  0
   13.8519   -6.9641   19.1256 N   0  0  0  0  0  0  0  0  0  0  0  0
   12.5068   -6.5265   18.8781 C   0  0  0  0  0  0  0  0  0  0  0  0
   11.9602   -6.7073   17.7580 O   0  0  0  0  0  0  0  0  0  0  0  0
   14.2175   -6.7809   20.0211 H   0  0  0  0  0  0  0  0  0  0  0  0
   11.7336   -5.8460   19.9582 C   0  0  0  0  0  0  0  0  0  0  0  0
   12.3434   -6.1429   21.3144 C   0  0  0  0  0  0  0  0  0  0  0  0
   11.6989   -4.3480   19.7245 C   0  0  0  0  0  0  0  0  0  0  0  0
   17.5750  -10.6057   13.2579 C   0  0  0  0  0  0  0  0  0  0  0  0
   17.3995   -9.0980    9.3238 N   0  0  0  0  0  0  0  0  0  0  0  0
   17.4864   -8.5541    8.1123 N   0  0  0  0  0  0  0  0  0  0  0  0
   18.6415   -7.8652    7.9464 C   0  0  0  0  0  0  0  0  0  0  0  0
   19.6261   -7.9260    9.3278 S   0  0  0  0  0  0  0  0  0  0  0  0
   18.4691   -8.8579   10.1115 C   0  0  0  0  0  0  0  0  0  0  0  0
   18.5462   -9.3408   11.3756 N   0  0  0  0  0  0  0  0  0  0  0  0
   17.5190  -10.0923   11.8637 C   0  0  0  0  0  0  0  0  0  0  0  0
   16.3894  -10.3517   11.0696 C   0  0  0  0  0  0  0  0  0  0  0  0
   16.3490   -9.8366    9.7692 C   0  0  0  0  0  0  0  0  0  0  0  0
   15.3528  -10.0558    9.0300 O   0  0  0  0  0  0  0  0  0  0  0  0
   19.0164   -7.1933    6.6733 C   0  0  0  0  0  0  0  0  0  0  0  0
   19.3091   -8.2327    5.6097 C   0  0  0  0  0  0  0  0  0  0  0  0
   20.2642   -7.6532    4.5881 C   0  0  0  0  0  0  0  0  0  0  0  0
 18 19  1  0  0  0
 19 20  2  0  0  0
 20 21  1  0  0  0
 21 22  1  0  0  0
 22 23  2  0  0  0
 23 24  1  0  0  0
 24 17  1  0  0  0
 17  1  1  0  0  0
  1  2  1  0  0  0
  2  3  2  0  0  0
  2  4  1  0  0  0
  4  5  2  0  0  0
  5  6  1  0  0  0
  6  7  2  0  0  0
  7  8  1  0  0  0
  8  9  2  0  0  0
  7 10  1  0  0  0
 10 11  1  0  0  0
 11 14  1  0  0  0
 14 15  1  0  0  0
 14 16  1  0  0  0
 11 12  2  0  0  0
 24 25  2  0  0  0
 25 26  1  0  0  0
 26 27  2  0  0  0
 20 28  1  0  0  0
 28 29  1  0  0  0
 29 30  1  0  0  0
 22 18  1  0  0  0
  9  4  1  0  0  0
 26 18  1  0  0  0
 10 13  1  0  0  0
M  END
>  <minimizedAffinity>
-6.46095

>  <minimizedRMSD>
2.53833

$$$$
ChemDiv-G357-1774 CHEMBL1377435 MCULE-5793602449 MolPort-007-847-654 PubChem-16027385 ZINC000008606905


 34 37  0  0  0  0  0  0  0  0999 V2000
   17.3627  -10.0794   14.1364 C   0  0  0  0  0  0  0  0  0  0  0  0
   17.6414  -10.7801   15.3180 C   0  0  0  0  0  0  0  0  0  0  0  0
   17.2265  -10.2743   16.5532 C   0  0  0  0  0  0  0  0  0  0  0  0
   16.5293   -9.0642   16.6247 C   0  0  0  0  0  0  0  0  0  0  0  0
   16.2496   -8.3631   15.4424 C   0  0  0  0  0  0  0  0  0  0  0  0
   16.6640   -8.8674   14.2069 C   0  0  0  0  0  0  0  0  0  0  0  0
   16.1180   -8.5801   17.9100 N   0  0  0  0  0  0  0  0  0  0  0  0
   15.0598   -7.6516   18.1789 C   0  0  0  0  0  0  0  0  0  0  0  0
   14.3759   -7.1510   17.2472 O   0  0  0  0  0  0  0  0  0  0  0  0
   16.6142   -8.9209   18.6890 H   0  0  0  0  0  0  0  0  0  0  0  0
   14.7426   -7.2965   19.5908 C   0  0  0  0  0  0  0  0  0  0  0  0
   13.3932   -6.8534   19.6966 O   0  0  0  0  0  0  0  0  0  0  0  0
   12.3018   -7.5958   19.2319 C   0  0  0  0  0  0  0  0  0  0  0  0
   11.9877   -8.8580   19.7627 C   0  0  0  0  0  0  0  0  0  0  0  0
   10.8897   -9.5737   19.2770 C   0  0  0  0  0  0  0  0  0  0  0  0
   10.0983   -9.0328   18.2602 C   0  0  0  0  0  0  0  0  0  0  0  0
   10.4040   -7.7760   17.7303 C   0  0  0  0  0  0  0  0  0  0  0  0
   11.5026   -7.0603   18.2159 C   0  0  0  0  0  0  0  0  0  0  0  0
    8.9309   -9.7932   17.7433 C   0  0  0  0  0  0  0  0  0  0  0  0
   17.7961  -10.6067   12.8325 C   0  0  0  0  0  0  0  0  0  0  0  0
   18.3117  -11.7563   12.7550 O   0  0  0  0  0  0  0  0  0  0  0  0
   17.6337   -9.8292   11.6837 O   0  0  0  0  0  0  0  0  0  0  0  0
   18.6035   -8.8740   11.2792 C   0  0  0  0  0  0  0  0  0  0  0  0
   19.5231   -7.8935    7.8229 C   0  0  0  0  0  0  0  0  0  0  0  0
   20.6101   -7.0270    6.8943 S   0  0  0  0  0  0  0  0  0  0  0  0
   19.8463   -7.4117    5.4337 C   0  0  0  0  0  0  0  0  0  0  0  0
   18.7467   -8.2199    5.7371 C   0  0  0  0  0  0  0  0  0  0  0  0
   17.8542   -8.7355    4.6580 C   0  0  0  0  0  0  0  0  0  0  0  0
   18.5702   -8.4855    7.0692 N   0  0  0  0  0  0  0  0  0  0  0  0
   17.5899   -9.2354    7.6598 C   0  0  0  0  0  0  0  0  0  0  0  0
   17.5903   -9.3815    9.0511 C   0  0  0  0  0  0  0  0  0  0  0  0
   18.6002   -8.7593    9.7970 C   0  0  0  0  0  0  0  0  0  0  0  0
   19.5524   -8.0141    9.1725 N   0  0  0  0  0  0  0  0  0  0  0  0
   16.6890   -9.7937    6.9790 O   0  0  0  0  0  0  0  0  0  0  0  0
 24 25  1  0  0  0
 25 26  1  0  0  0
 26 27  2  0  0  0
 27 28  1  0  0  0
 27 29  1  0  0  0
 29 30  1  0  0  0
 30 31  1  0  0  0
 31 32  2  0  0  0
 32 23  1  0  0  0
 23 22  1  0  0  0
 22 20  1  0  0  0
 20 21  2  0  0  0
 20  1  1  0  0  0
  1  2  2  0  0  0
  2  3  1  0  0  0
  3  4  2  0  0  0
  4  5  1  0  0  0
  5  6  2  0  0  0
  4  7  1  0  0  0
  7  8  1  0  0  0
  8 11  1  0  0  0
 11 12  1  0  0  0
 12 13  1  0  0  0
 13 14  2  0  0  0
 14 15  1  0  0  0
 15 16  2  0  0  0
 16 17  1  0  0  0
 17 18  2  0  0  0
 16 19  1  0  0  0
  8  9  2  0  0  0
 32 33  1  0  0  0
 30 34  2  0  0  0
 29 24  1  0  0  0
  6  1  1  0  0  0
 18 13  1  0  0  0
 33 24  2  0  0  0
  7 10  1  0  0  0
M  END
>  <minimizedAffinity>
-6.44976

>  <minimizedRMSD>
1.77501

$$$$
ChemDiv-C887-3036 CHEMBL1367819 MCULE-1285065465 MolPort-007-681-321 PubChem-20893832 ZINC000008965125


 34 37  0  0  0  0  0  0  0  0999 V2000
   16.3467  -10.0491   13.5392 C   0  0  0  0  0  0  0  0  0  0  0  0
   15.8259   -9.6171   14.7957 N   0  0  0  0  0  0  0  0  0  0  0  0
   17.2844  -10.8894   13.4911 O   0  0  0  0  0  0  0  0  0  0  0  0
   15.1033   -8.9485   14.8073 H   0  0  0  0  0  0  0  0  0  0  0  0
   15.7811   -9.5082   12.2674 C   0  0  0  0  0  0  0  0  0  0  0  0
   16.5431  -10.0454   11.0677 C   0  0  0  0  0  0  0  0  0  0  0  0
   17.8046   -9.2245   10.8458 C   0  0  0  0  0  0  0  0  0  0  0  0
   19.2182   -8.0435    7.6212 C   0  0  0  0  0  0  0  0  0  0  0  0
   20.2132   -7.3025    6.9384 C   0  0  0  0  0  0  0  0  0  0  0  0
   19.8083   -7.5131    5.6285 C   0  0  0  0  0  0  0  0  0  0  0  0
   18.7365   -8.2680    5.5664 C   0  0  0  0  0  0  0  0  0  0  0  0
   18.3467   -8.4705    4.2677 C   0  0  0  0  0  0  0  0  0  0  0  0
   19.3440   -7.7278    3.5906 C   0  0  0  0  0  0  0  0  0  0  0  0
   20.2064   -7.1656    4.4397 O   0  0  0  0  0  0  0  0  0  0  0  0
   18.3309   -8.6221    6.7813 N   0  0  0  0  0  0  0  0  0  0  0  0
   17.2926   -9.3719    7.2070 C   0  0  0  0  0  0  0  0  0  0  0  0
   17.1522   -9.5464    8.5500 N   0  0  0  0  0  0  0  0  0  0  0  0
   18.0079   -8.9907    9.4223 N   0  0  0  0  0  0  0  0  0  0  0  0
   19.0654   -8.2271    8.9914 C   0  0  0  0  0  0  0  0  0  0  0  0
   19.8744   -7.7046    9.8085 O   0  0  0  0  0  0  0  0  0  0  0  0
   16.3277  -10.1321   16.0586 C   0  0  0  0  0  0  0  0  0  0  0  0
   16.9232   -9.0006   16.8837 C   0  0  0  0  0  0  0  0  0  0  0  0
   15.8790   -8.3003   17.6910 C   0  0  0  0  0  0  0  0  0  0  0  0
   14.7192   -7.8326   17.0627 C   0  0  0  0  0  0  0  0  0  0  0  0
   13.7444   -7.1594   17.8059 C   0  0  0  0  0  0  0  0  0  0  0  0
   13.9273   -6.9465   19.1785 C   0  0  0  0  0  0  0  0  0  0  0  0
   15.0875   -7.4138   19.8071 C   0  0  0  0  0  0  0  0  0  0  0  0
   16.0623   -8.0892   19.0654 C   0  0  0  0  0  0  0  0  0  0  0  0
   12.7067   -6.0988   20.1132 S   0  0  0  0  0  0  0  0  0  0  0  0
   13.4578   -4.8581   21.0536 N   0  0  0  0  0  0  0  0  0  0  0  0
   11.7050   -5.4709   19.1840 O   0  0  0  0  0  0  0  0  0  0  0  0
   12.0028   -7.0675   21.0215 O   0  0  0  0  0  0  0  0  0  0  0  0
   13.9342   -4.2030   20.4337 H   0  0  0  0  0  0  0  0  0  0  0  0
   14.1351   -5.2773   21.6906 H   0  0  0  0  0  0  0  0  0  0  0  0
  8  9  2  0  0  0
  9 10  1  0  0  0
 10 11  2  0  0  0
 11 12  1  0  0  0
 12 13  2  0  0  0
 13 14  1  0  0  0
 11 15  1  0  0  0
 15 16  1  0  0  0
 16 17  2  0  0  0
 17 18  1  0  0  0
 18  7  1  0  0  0
  7  6  1  0  0  0
  6  5  1  0  0  0
  5  1  1  0  0  0
  1  2  1  0  0  0
  2 21  1  0  0  0
 21 22  1  0  0  0
 22 23  1  0  0  0
 23 24  2  0  0  0
 24 25  1  0  0  0
 25 26  2  0  0  0
 26 27  1  0  0  0
 27 28  2  0  0  0
 26 29  1  0  0  0
 29 30  1  0  0  0
 29 31  2  0  0  0
 29 32  2  0  0  0
  1  3  2  0  0  0
 18 19  1  0  0  0
 19 20  2  0  0  0
 15  8  1  0  0  0
 28 23  1  0  0  0
 19  8  1  0  0  0
 14 10  1  0  0  0
  2  4  1  0  0  0
 30 33  1  0  0  0
 30 34  1  0  0  0
M  END
>  <minimizedAffinity>
-6.44454

>  <minimizedRMSD>
3.65399

$$$$
ChemDiv-D483-1623 MCULE-4427803344 MolPort-007-710-964 PubChem-20899093 ZINC000015859258 ZINC15859258


 34 37  0  0  0  0  0  0  0  0999 V2000
   15.9682   -8.5952   16.4157 C   0  0  0  0  0  0  0  0  0  0  0  0
   15.6088   -7.7913   15.3964 N   0  0  0  0  0  0  0  0  0  0  0  0
   15.8035   -8.4775   14.2780 N   0  0  0  0  0  0  0  0  0  0  0  0
   16.2813   -9.6859   14.6369 C   0  0  0  0  0  0  0  0  0  0  0  0
   16.3974   -9.7882   15.9717 N   0  0  0  0  0  0  0  0  0  0  0  0
   16.8494  -10.9279   16.7536 C   0  0  0  0  0  0  0  0  0  0  0  0
   15.8880   -8.1140   18.1406 S   0  0  0  0  0  0  0  0  0  0  0  0
   14.1191   -7.6977   18.0497 C   0  0  0  0  0  0  0  0  0  0  0  0
   14.1140   -7.0878   20.4974 N   0  0  0  0  0  0  0  0  0  0  0  0
   13.7496   -6.7647   19.1495 C   0  0  0  0  0  0  0  0  0  0  0  0
   13.1381   -5.6988   18.8744 O   0  0  0  0  0  0  0  0  0  0  0  0
   14.5898   -7.9391   20.6322 H   0  0  0  0  0  0  0  0  0  0  0  0
   14.9206   -5.9924   22.5453 C   0  0  0  0  0  0  0  0  0  0  0  0
   13.8592   -6.3020   21.6733 C   0  0  0  0  0  0  0  0  0  0  0  0
   12.5691   -5.8369   21.9742 C   0  0  0  0  0  0  0  0  0  0  0  0
   12.3370   -5.0724   23.1199 C   0  0  0  0  0  0  0  0  0  0  0  0
   13.3936   -4.7628   23.9774 C   0  0  0  0  0  0  0  0  0  0  0  0
   14.6816   -5.2190   23.6896 C   0  0  0  0  0  0  0  0  0  0  0  0
   17.0928   -6.6628   23.5322 C   0  0  0  0  0  0  0  0  0  0  0  0
   16.3128   -6.4505   22.2477 C   0  0  0  0  0  0  0  0  0  0  0  0
   16.6420  -10.7634   13.6644 C   0  0  0  0  0  0  0  0  0  0  0  0
   17.2207  -10.1745   12.4088 C   0  0  0  0  0  0  0  0  0  0  0  0
   18.5419   -9.7080   12.3692 C   0  0  0  0  0  0  0  0  0  0  0  0
   19.4401   -9.8078   13.5554 C   0  0  0  0  0  0  0  0  0  0  0  0
   19.0272   -9.1582   11.2298 N   0  0  0  0  0  0  0  0  0  0  0  0
   18.2635   -9.0414   10.1115 C   0  0  0  0  0  0  0  0  0  0  0  0
   16.9617   -9.4914   10.1180 N   0  0  0  0  0  0  0  0  0  0  0  0
   16.1888   -9.3771    8.9966 C   0  0  0  0  0  0  0  0  0  0  0  0
   16.6964   -8.8068    7.8298 C   0  0  0  0  0  0  0  0  0  0  0  0
   18.0104   -8.3485    7.8111 C   0  0  0  0  0  0  0  0  0  0  0  0
   18.8041   -8.4620    8.9505 C   0  0  0  0  0  0  0  0  0  0  0  0
   20.2088   -7.9635    8.9074 C   0  0  0  0  0  0  0  0  0  0  0  0
   16.4359  -10.0545   11.2505 C   0  0  0  0  0  0  0  0  0  0  0  0
   15.2424  -10.4709   11.2615 O   0  0  0  0  0  0  0  0  0  0  0  0
 19 20  1  0  0  0
 20 13  1  0  0  0
 13 14  2  0  0  0
 14  9  1  0  0  0
 14 15  1  0  0  0
  9 10  1  0  0  0
 10 11  2  0  0  0
 10  8  1  0  0  0
  8  7  1  0  0  0
  7  1  1  0  0  0
  1  2  2  0  0  0
  2  3  1  0  0  0
  3  4  2  0  0  0
  4 21  1  0  0  0
  4  5  1  0  0  0
 21 22  1  0  0  0
 22 23  2  0  0  0
 23 24  1  0  0  0
 23 25  1  0  0  0
 25 26  2  0  0  0
 26 27  1  0  0  0
 27 28  1  0  0  0
 27 33  1  0  0  0
 28 29  2  0  0  0
 29 30  1  0  0  0
 30 31  2  0  0  0
 31 32  1  0  0  0
 31 26  1  0  0  0
 33 34  2  0  0  0
 33 22  1  0  0  0
  5  6  1  0  0  0
  5  1  1  0  0  0
 15 16  2  0  0  0
 16 17  1  0  0  0
 17 18  2  0  0  0
 18 13  1  0  0  0
  9 12  1  0  0  0
M  END
>  <minimizedAffinity>
-6.43124

>  <minimizedRMSD>
3.71672

$$$$
ChemDiv-G357-1760 MCULE-3879223163 MolPort-007-847-646 PubChem-46343461 ZINC000021632867 ZINC21632867


 29 31  0  0  0  0  0  0  0  0999 V2000
   17.4220  -10.4166   13.6520 C   0  0  0  0  0  0  0  0  0  0  0  0
   17.8713  -11.5961   13.6656 O   0  0  0  0  0  0  0  0  0  0  0  0
   16.9482   -9.7937   14.8984 C   0  0  0  0  0  0  0  0  0  0  0  0
   16.2788   -8.5640   14.8591 C   0  0  0  0  0  0  0  0  0  0  0  0
   15.8271   -7.9687   16.0400 C   0  0  0  0  0  0  0  0  0  0  0  0
   16.0383   -8.5962   17.2766 C   0  0  0  0  0  0  0  0  0  0  0  0
   16.7082   -9.8232   17.3148 C   0  0  0  0  0  0  0  0  0  0  0  0
   17.1606  -10.4198   16.1345 C   0  0  0  0  0  0  0  0  0  0  0  0
   15.5929   -8.0150   18.5096 N   0  0  0  0  0  0  0  0  0  0  0  0
   14.2769   -7.5188   18.8037 C   0  0  0  0  0  0  0  0  0  0  0  0
   13.3481   -7.6311   17.9567 O   0  0  0  0  0  0  0  0  0  0  0  0
   16.2595   -7.9490   19.2311 H   0  0  0  0  0  0  0  0  0  0  0  0
   13.9895   -6.9398   20.1650 C   0  0  0  0  0  0  0  0  0  0  0  0
   13.3898   -5.5471   20.0583 C   0  0  0  0  0  0  0  0  0  0  0  0
   15.2660   -6.8419   20.9810 C   0  0  0  0  0  0  0  0  0  0  0  0
   13.0096   -7.8380   20.8933 C   0  0  0  0  0  0  0  0  0  0  0  0
   17.3717   -9.6964   12.4564 O   0  0  0  0  0  0  0  0  0  0  0  0
   16.4632  -10.0284   11.4168 C   0  0  0  0  0  0  0  0  0  0  0  0
   18.3793   -8.5600    5.2045 C   0  0  0  0  0  0  0  0  0  0  0  0
   18.6887   -8.2252    6.6253 C   0  0  0  0  0  0  0  0  0  0  0  0
   19.6899   -7.3026    6.9434 C   0  0  0  0  0  0  0  0  0  0  0  0
   19.7505   -7.1828    8.6306 S   0  0  0  0  0  0  0  0  0  0  0  0
   18.5221   -8.2918    8.8676 C   0  0  0  0  0  0  0  0  0  0  0  0
   18.0327   -8.6889   10.0674 N   0  0  0  0  0  0  0  0  0  0  0  0
   17.0290   -9.6069   10.1083 C   0  0  0  0  0  0  0  0  0  0  0  0
   16.4971  -10.1232    8.9192 C   0  0  0  0  0  0  0  0  0  0  0  0
   17.0257   -9.6909    7.6984 C   0  0  0  0  0  0  0  0  0  0  0  0
   16.5577  -10.1516    6.6233 O   0  0  0  0  0  0  0  0  0  0  0  0
   18.0407   -8.7734    7.7002 N   0  0  0  0  0  0  0  0  0  0  0  0
 19 20  1  0  0  0
 20 21  2  0  0  0
 21 22  1  0  0  0
 22 23  1  0  0  0
 23 24  2  0  0  0
 24 25  1  0  0  0
 25 18  1  0  0  0
 25 26  2  0  0  0
 18 17  1  0  0  0
 17  1  1  0  0  0
  1  2  2  0  0  0
  1  3  1  0  0  0
  3  4  2  0  0  0
  4  5  1  0  0  0
  5  6  2  0  0  0
  6  9  1  0  0  0
  6  7  1  0  0  0
  9 10  1  0  0  0
 10 11  2  0  0  0
 10 13  1  0  0  0
 13 14  1  0  0  0
 13 15  1  0  0  0
 13 16  1  0  0  0
  7  8  2  0  0  0
  8  3  1  0  0  0
 26 27  1  0  0  0
 27 28  2  0  0  0
 27 29  1  0  0  0
 29 20  1  0  0  0
 29 23  1  0  0  0
  9 12  1  0  0  0
M  END
>  <minimizedAffinity>
-6.42446

>  <minimizedRMSD>
1.24480

$$$$
ChemDiv-C679-4189 MCULE-5009321370 MolPort-007-655-801 PubChem-20874219 ZINC000013367983 ZINC13367983


 29 31  0  0  0  0  0  0  0  0999 V2000
   17.2946   -9.5843   13.5463 O   0  0  0  0  0  0  0  0  0  0  0  0
   16.4838   -9.1671   17.1324 C   0  0  0  0  0  0  0  0  0  0  0  0
   16.5940   -8.9265   15.7542 C   0  0  0  0  0  0  0  0  0  0  0  0
   17.2043   -9.8617   14.9126 C   0  0  0  0  0  0  0  0  0  0  0  0
   17.7097  -11.0524   15.4579 C   0  0  0  0  0  0  0  0  0  0  0  0
   17.6027  -11.2987   16.8287 C   0  0  0  0  0  0  0  0  0  0  0  0
   16.9911  -10.3581   17.6617 C   0  0  0  0  0  0  0  0  0  0  0  0
   14.5640   -7.6352   17.8680 C   0  0  0  0  0  0  0  0  0  0  0  0
   13.8414   -7.8910   16.8688 O   0  0  0  0  0  0  0  0  0  0  0  0
   15.8612   -8.2279   18.0193 N   0  0  0  0  0  0  0  0  0  0  0  0
   16.3777   -7.9625   18.8144 H   0  0  0  0  0  0  0  0  0  0  0  0
   14.0639   -6.6849   18.9032 C   0  0  0  0  0  0  0  0  0  0  0  0
   13.3806   -6.4545   21.2705 C   0  0  0  0  0  0  0  0  0  0  0  0
   13.5431   -7.4285   20.1231 C   0  0  0  0  0  0  0  0  0  0  0  0
   12.1999   -8.0652   19.8182 C   0  0  0  0  0  0  0  0  0  0  0  0
   18.2838  -10.1675   12.7083 C   0  0  0  0  0  0  0  0  0  0  0  0
   18.0242   -9.7900   11.2940 C   0  0  0  0  0  0  0  0  0  0  0  0
   16.7848  -10.0938   10.7068 C   0  0  0  0  0  0  0  0  0  0  0  0
   16.5545   -9.7042    9.3828 C   0  0  0  0  0  0  0  0  0  0  0  0
   15.4549   -9.9651    8.8264 O   0  0  0  0  0  0  0  0  0  0  0  0
   17.5348   -9.0408    8.7145 N   0  0  0  0  0  0  0  0  0  0  0  0
   17.4419   -8.6146    7.4572 N   0  0  0  0  0  0  0  0  0  0  0  0
   18.5672   -7.9805    7.0472 C   0  0  0  0  0  0  0  0  0  0  0  0
   19.7470   -7.9282    8.2735 S   0  0  0  0  0  0  0  0  0  0  0  0
   18.7134   -8.7551    9.3066 C   0  0  0  0  0  0  0  0  0  0  0  0
   18.9744   -9.1152   10.5868 N   0  0  0  0  0  0  0  0  0  0  0  0
   18.7177   -7.4073    5.6769 C   0  0  0  0  0  0  0  0  0  0  0  0
   18.4302   -8.4595    4.6237 C   0  0  0  0  0  0  0  0  0  0  0  0
   20.1139   -6.8486    5.4828 C   0  0  0  0  0  0  0  0  0  0  0  0
 13 14  1  0  0  0
 14 15  1  0  0  0
 14 12  1  0  0  0
 12  8  1  0  0  0
  8  9  2  0  0  0
  8 10  1  0  0  0
 10  2  1  0  0  0
  2  3  2  0  0  0
  3  4  1  0  0  0
  4  1  1  0  0  0
  4  5  2  0  0  0
  1 16  1  0  0  0
 16 17  1  0  0  0
 17 18  2  0  0  0
 18 19  1  0  0  0
 19 20  2  0  0  0
 19 21  1  0  0  0
 21 22  1  0  0  0
 22 23  2  0  0  0
 23 24  1  0  0  0
 23 27  1  0  0  0
 24 25  1  0  0  0
 25 26  2  0  0  0
 25 21  1  0  0  0
 26 17  1  0  0  0
 27 28  1  0  0  0
 27 29  1  0  0  0
  5  6  1  0  0  0
  6  7  2  0  0  0
  7  2  1  0  0  0
 10 11  1  0  0  0
M  END
>  <minimizedAffinity>
-6.41920

>  <minimizedRMSD>
1.05900

$$$$
ChemDiv-C679-5546 MCULE-7853094768 MolPort-007-656-129 PubChem-20874348 ZINC000020859429


 28 31  0  0  0  0  0  0  0  0999 V2000
   17.3502   -9.9375   15.1210 C   0  0  0  0  0  0  0  0  0  0  0  0
   18.0352  -11.0336   15.6684 C   0  0  0  0  0  0  0  0  0  0  0  0
   17.9829  -11.2802   17.0424 C   0  0  0  0  0  0  0  0  0  0  0  0
   17.2470  -10.4344   17.8763 C   0  0  0  0  0  0  0  0  0  0  0  0
   16.5595   -9.3385   17.3447 C   0  0  0  0  0  0  0  0  0  0  0  0
   16.6163   -9.0967   15.9636 C   0  0  0  0  0  0  0  0  0  0  0  0
   15.8154   -8.4939   18.2333 N   0  0  0  0  0  0  0  0  0  0  0  0
   14.6655   -7.7023   17.9047 C   0  0  0  0  0  0  0  0  0  0  0  0
   14.1973   -7.6925   16.7343 O   0  0  0  0  0  0  0  0  0  0  0  0
   16.1263   -8.4533   19.1666 H   0  0  0  0  0  0  0  0  0  0  0  0
   14.0292   -6.8939   18.9499 C   0  0  0  0  0  0  0  0  0  0  0  0
   12.9398   -6.0669   18.7731 C   0  0  0  0  0  0  0  0  0  0  0  0
   12.7032   -5.5224   20.0233 C   0  0  0  0  0  0  0  0  0  0  0  0
   13.6595   -6.0516   20.8731 C   0  0  0  0  0  0  0  0  0  0  0  0
   14.4317   -6.8656   20.1947 O   0  0  0  0  0  0  0  0  0  0  0  0
   17.3817   -9.6624   13.7515 O   0  0  0  0  0  0  0  0  0  0  0  0
   18.0240  -10.5141   12.8119 C   0  0  0  0  0  0  0  0  0  0  0  0
   17.4324   -8.9546    8.9361 N   0  0  0  0  0  0  0  0  0  0  0  0
   17.4149   -8.3668    7.7100 C   0  0  0  0  0  0  0  0  0  0  0  0
   18.5813   -7.6564    7.4359 C   0  0  0  0  0  0  0  0  0  0  0  0
   19.6489   -7.7635    8.7443 S   0  0  0  0  0  0  0  0  0  0  0  0
   18.5776   -8.7180    9.6144 C   0  0  0  0  0  0  0  0  0  0  0  0
   18.7857   -9.2172   10.8574 N   0  0  0  0  0  0  0  0  0  0  0  0
   17.8205   -9.9836   11.4382 C   0  0  0  0  0  0  0  0  0  0  0  0
   16.6172  -10.2399   10.7625 C   0  0  0  0  0  0  0  0  0  0  0  0
   16.4381   -9.7073    9.4813 C   0  0  0  0  0  0  0  0  0  0  0  0
   15.3689   -9.9253    8.8508 O   0  0  0  0  0  0  0  0  0  0  0  0
   18.8499   -6.9114    6.1787 C   0  0  0  0  0  0  0  0  0  0  0  0
 18 19  1  0  0  0
 19 20  2  0  0  0
 20 21  1  0  0  0
 21 22  1  0  0  0
 22 23  2  0  0  0
 23 24  1  0  0  0
 24 17  1  0  0  0
 17 16  1  0  0  0
 16  1  1  0  0  0
  1  2  2  0  0  0
  2  3  1  0  0  0
  3  4  2  0  0  0
  4  5  1  0  0  0
  5  6  2  0  0  0
  5  7  1  0  0  0
  7  8  1  0  0  0
  8  9  2  0  0  0
  8 11  1  0  0  0
 11 12  2  0  0  0
 12 13  1  0  0  0
 13 14  2  0  0  0
 14 15  1  0  0  0
 24 25  2  0  0  0
 25 26  1  0  0  0
 26 27  2  0  0  0
 20 28  1  0  0  0
 22 18  1  0  0  0
  6  1  1  0  0  0
 15 11  1  0  0  0
 26 18  1  0  0  0
  7 10  1  0  0  0
M  END
>  <minimizedAffinity>
-6.41367

>  <minimizedRMSD>
0.84471

$$$$
ChemDiv-G756-0555 CHEMBL1357143 MCULE-2939669268 MolPort-007-879-265 PubChem-16030602 ZINC000008598280 ZINC08598280


 27 29  0  0  0  0  0  0  0  0999 V2000
   17.3259   -9.6383   13.7778 O   0  0  0  0  0  0  0  0  0  0  0  0
   16.5740   -9.2910   17.3841 C   0  0  0  0  0  0  0  0  0  0  0  0
   16.6371   -9.0369   16.0055 C   0  0  0  0  0  0  0  0  0  0  0  0
   17.2854   -9.9275   15.1440 C   0  0  0  0  0  0  0  0  0  0  0  0
   17.8779  -11.0863   15.6700 C   0  0  0  0  0  0  0  0  0  0  0  0
   17.8194  -11.3452   17.0415 C   0  0  0  0  0  0  0  0  0  0  0  0
   17.1694  -10.4492   17.8944 C   0  0  0  0  0  0  0  0  0  0  0  0
   14.7443   -7.6162   18.0293 C   0  0  0  0  0  0  0  0  0  0  0  0
   14.1490   -7.6842   16.9206 O   0  0  0  0  0  0  0  0  0  0  0  0
   15.9184   -8.3951   18.2918 N   0  0  0  0  0  0  0  0  0  0  0  0
   16.3159   -8.3059   19.1881 H   0  0  0  0  0  0  0  0  0  0  0  0
   14.2127   -6.7218   19.0987 C   0  0  0  0  0  0  0  0  0  0  0  0
   12.9050   -6.8305   21.2222 C   0  0  0  0  0  0  0  0  0  0  0  0
   13.9964   -7.4854   20.3961 C   0  0  0  0  0  0  0  0  0  0  0  0
   17.9338  -10.5034   12.8276 C   0  0  0  0  0  0  0  0  0  0  0  0
   17.6172  -10.0349   11.4528 C   0  0  0  0  0  0  0  0  0  0  0  0
   16.3798  -10.3225   10.8874 C   0  0  0  0  0  0  0  0  0  0  0  0
   16.0995   -9.8478    9.6076 C   0  0  0  0  0  0  0  0  0  0  0  0
   14.9787  -10.1120    9.0918 O   0  0  0  0  0  0  0  0  0  0  0  0
   17.0299   -9.1062    8.9290 N   0  0  0  0  0  0  0  0  0  0  0  0
   16.7474   -8.6443    7.6745 C   0  0  0  0  0  0  0  0  0  0  0  0
   17.6769   -7.8847    6.9645 C   0  0  0  0  0  0  0  0  0  0  0  0
   18.9081   -7.5951    7.5461 C   0  0  0  0  0  0  0  0  0  0  0  0
   19.2025   -8.0631    8.8253 C   0  0  0  0  0  0  0  0  0  0  0  0
   20.5275   -7.7402    9.4281 C   0  0  0  0  0  0  0  0  0  0  0  0
   18.2461   -8.8270    9.5156 C   0  0  0  0  0  0  0  0  0  0  0  0
   18.5191   -9.2912   10.7655 N   0  0  0  0  0  0  0  0  0  0  0  0
 13 14  1  0  0  0
 14 12  1  0  0  0
 12  8  1  0  0  0
  8  9  2  0  0  0
  8 10  1  0  0  0
 10  2  1  0  0  0
  2  3  2  0  0  0
  3  4  1  0  0  0
  4  1  1  0  0  0
  4  5  2  0  0  0
  1 15  1  0  0  0
 15 16  1  0  0  0
 16 17  2  0  0  0
 17 18  1  0  0  0
 18 19  2  0  0  0
 18 20  1  0  0  0
 20 21  1  0  0  0
 21 22  2  0  0  0
 22 23  1  0  0  0
 23 24  2  0  0  0
 24 25  1  0  0  0
 24 26  1  0  0  0
 26 27  2  0  0  0
 26 20  1  0  0  0
 27 16  1  0  0  0
  5  6  1  0  0  0
  6  7  2  0  0  0
  7  2  1  0  0  0
 10 11  1  0  0  0
M  END
>  <minimizedAffinity>
-6.41023

>  <minimizedRMSD>
1.39182

$$$$
ChemDiv-C679-4700 MCULE-2952575529 MolPort-007-655-968 PubChem-20874303 ZINC000013368258


 29 31  0  0  0  0  0  0  0  0999 V2000
   17.5637  -10.9265   13.0320 C   0  0  0  0  0  0  0  0  0  0  0  0
   17.3681   -9.1187    9.2277 N   0  0  0  0  0  0  0  0  0  0  0  0
   17.4470   -8.4777    8.0642 N   0  0  0  0  0  0  0  0  0  0  0  0
   18.6191   -7.8105    7.9301 C   0  0  0  0  0  0  0  0  0  0  0  0
   19.6151   -7.9888    9.2926 S   0  0  0  0  0  0  0  0  0  0  0  0
   18.4535   -8.9640   10.0145 C   0  0  0  0  0  0  0  0  0  0  0  0
   18.5363   -9.5427   11.2372 N   0  0  0  0  0  0  0  0  0  0  0  0
   17.4997  -10.3082   11.6814 C   0  0  0  0  0  0  0  0  0  0  0  0
   16.3534  -10.4803   10.8878 C   0  0  0  0  0  0  0  0  0  0  0  0
   16.3064   -9.8647    9.6321 C   0  0  0  0  0  0  0  0  0  0  0  0
   15.2941  -10.0021    8.8952 O   0  0  0  0  0  0  0  0  0  0  0  0
   18.9582   -6.9781    6.7407 C   0  0  0  0  0  0  0  0  0  0  0  0
   20.2406   -7.4668    6.0871 C   0  0  0  0  0  0  0  0  0  0  0  0
   20.2590   -7.1074    4.6132 C   0  0  0  0  0  0  0  0  0  0  0  0
   21.6791   -7.1805    4.0942 C   0  0  0  0  0  0  0  0  0  0  0  0
   16.7156  -10.2143   13.9230 O   0  0  0  0  0  0  0  0  0  0  0  0
   17.1831   -9.6241   15.0997 C   0  0  0  0  0  0  0  0  0  0  0  0
   18.5388   -9.3057   15.2763 C   0  0  0  0  0  0  0  0  0  0  0  0
   18.9728   -8.7140   16.4648 C   0  0  0  0  0  0  0  0  0  0  0  0
   18.0562   -8.4378   17.4830 C   0  0  0  0  0  0  0  0  0  0  0  0
   16.7028   -8.7511   17.3217 C   0  0  0  0  0  0  0  0  0  0  0  0
   16.2737   -9.3445   16.1248 C   0  0  0  0  0  0  0  0  0  0  0  0
   15.7939   -8.4546   18.3909 N   0  0  0  0  0  0  0  0  0  0  0  0
   14.5953   -7.6734   18.3063 C   0  0  0  0  0  0  0  0  0  0  0  0
   14.2318   -7.1541   17.2155 O   0  0  0  0  0  0  0  0  0  0  0  0
   16.0166   -8.8263   19.2749 H   0  0  0  0  0  0  0  0  0  0  0  0
   13.7715   -7.4826   19.5369 C   0  0  0  0  0  0  0  0  0  0  0  0
   13.6488   -6.0092   19.8745 C   0  0  0  0  0  0  0  0  0  0  0  0
   12.3930   -8.0876   19.3539 C   0  0  0  0  0  0  0  0  0  0  0  0
  2  3  1  0  0  0
  3  4  2  0  0  0
  4  5  1  0  0  0
  5  6  1  0  0  0
  6  7  2  0  0  0
  7  8  1  0  0  0
  8  1  1  0  0  0
  1 16  1  0  0  0
 16 17  1  0  0  0
 17 18  2  0  0  0
 18 19  1  0  0  0
 19 20  2  0  0  0
 20 21  1  0  0  0
 21 22  2  0  0  0
 21 23  1  0  0  0
 23 24  1  0  0  0
 24 27  1  0  0  0
 27 28  1  0  0  0
 27 29  1  0  0  0
 24 25  2  0  0  0
  8  9  2  0  0  0
  9 10  1  0  0  0
 10 11  2  0  0  0
  4 12  1  0  0  0
 12 13  1  0  0  0
 13 14  1  0  0  0
 14 15  1  0  0  0
  6  2  1  0  0  0
 22 17  1  0  0  0
 10  2  1  0  0  0
 23 26  1  0  0  0
M  END
>  <minimizedAffinity>
-6.40887

>  <minimizedRMSD>
2.08005

$$$$
ChemDiv-G357-1993 MCULE-1449551680 MolPort-007-847-722 PubChem-46343509 ZINC000021633192 ZINC21633192


 26 28  0  0  0  0  0  0  0  0999 V2000
   17.6433  -11.2347   14.5466 C   0  0  0  0  0  0  0  0  0  0  0  0
   18.0993  -12.3277   14.9834 O   0  0  0  0  0  0  0  0  0  0  0  0
   15.8471   -8.4213   17.2347 C   0  0  0  0  0  0  0  0  0  0  0  0
   15.6760   -8.2896   15.8487 C   0  0  0  0  0  0  0  0  0  0  0  0
   16.2625   -9.2080   14.9737 C   0  0  0  0  0  0  0  0  0  0  0  0
   17.0277  -10.2701   15.4721 C   0  0  0  0  0  0  0  0  0  0  0  0
   17.1985  -10.4014   16.8572 C   0  0  0  0  0  0  0  0  0  0  0  0
   16.6113   -9.4821   17.7312 C   0  0  0  0  0  0  0  0  0  0  0  0
   13.4374   -6.3106   19.4312 C   0  0  0  0  0  0  0  0  0  0  0  0
   13.8639   -7.3207   18.4285 C   0  0  0  0  0  0  0  0  0  0  0  0
   12.9910   -8.0023   17.8292 O   0  0  0  0  0  0  0  0  0  0  0  0
   15.2610   -7.4990   18.1634 N   0  0  0  0  0  0  0  0  0  0  0  0
   15.8828   -6.9294   18.6715 H   0  0  0  0  0  0  0  0  0  0  0  0
   17.7200  -10.9342   13.1848 O   0  0  0  0  0  0  0  0  0  0  0  0
   18.3004   -9.7271   12.7132 C   0  0  0  0  0  0  0  0  0  0  0  0
   18.0000   -9.5625   11.2665 C   0  0  0  0  0  0  0  0  0  0  0  0
   16.7885  -10.0439   10.7464 C   0  0  0  0  0  0  0  0  0  0  0  0
   16.5156   -9.8521    9.3878 C   0  0  0  0  0  0  0  0  0  0  0  0
   15.4370  -10.2779    8.8941 O   0  0  0  0  0  0  0  0  0  0  0  0
   17.4299   -9.2007    8.6182 N   0  0  0  0  0  0  0  0  0  0  0  0
   17.3167   -8.9327    7.2898 C   0  0  0  0  0  0  0  0  0  0  0  0
   18.4175   -8.2459    6.7825 C   0  0  0  0  0  0  0  0  0  0  0  0
   18.5772   -7.8172    5.3689 C   0  0  0  0  0  0  0  0  0  0  0  0
   19.5473   -7.9692    8.0114 S   0  0  0  0  0  0  0  0  0  0  0  0
   18.5850   -8.7407    9.1490 C   0  0  0  0  0  0  0  0  0  0  0  0
   18.8827   -8.9081   10.4608 N   0  0  0  0  0  0  0  0  0  0  0  0
  9 10  1  0  0  0
 10 11  2  0  0  0
 10 12  1  0  0  0
 12  3  1  0  0  0
  3  4  2  0  0  0
  4  5  1  0  0  0
  5  6  2  0  0  0
  6  7  1  0  0  0
  6  1  1  0  0  0
  7  8  2  0  0  0
  8  3  1  0  0  0
  1  2  2  0  0  0
  1 14  1  0  0  0
 14 15  1  0  0  0
 15 16  1  0  0  0
 16 17  2  0  0  0
 17 18  1  0  0  0
 18 19  2  0  0  0
 18 20  1  0  0  0
 20 21  1  0  0  0
 21 22  2  0  0  0
 22 23  1  0  0  0
 22 24  1  0  0  0
 24 25  1  0  0  0
 25 26  2  0  0  0
 25 20  1  0  0  0
 26 16  1  0  0  0
 12 13  1  0  0  0
M  END
>  <minimizedAffinity>
-6.39964

>  <minimizedRMSD>
1.41022

$$$$
ChemDiv-C679-4001 MCULE-8520217951 MolPort-007-655-733 PubChem-20874178 ZINC000009858700


 28 31  0  0  0  0  0  0  0  0999 V2000
   17.3519   -9.9373   15.1221 C   0  0  0  0  0  0  0  0  0  0  0  0
   18.0359  -11.0344   15.6691 C   0  0  0  0  0  0  0  0  0  0  0  0
   17.9840  -11.2810   17.0430 C   0  0  0  0  0  0  0  0  0  0  0  0
   17.2495  -10.4345   17.8775 C   0  0  0  0  0  0  0  0  0  0  0  0
   16.5631   -9.3375   17.3463 C   0  0  0  0  0  0  0  0  0  0  0  0
   16.6196   -9.0957   15.9652 C   0  0  0  0  0  0  0  0  0  0  0  0
   15.8201   -8.4925   18.2354 N   0  0  0  0  0  0  0  0  0  0  0  0
   14.6694   -7.7016   17.9077 C   0  0  0  0  0  0  0  0  0  0  0  0
   14.2010   -7.6910   16.7374 O   0  0  0  0  0  0  0  0  0  0  0  0
   16.1325   -8.4510   19.1681 H   0  0  0  0  0  0  0  0  0  0  0  0
   14.0326   -6.8949   18.9538 C   0  0  0  0  0  0  0  0  0  0  0  0
   12.9424   -6.0686   18.7781 C   0  0  0  0  0  0  0  0  0  0  0  0
   12.7056   -5.5255   20.0288 C   0  0  0  0  0  0  0  0  0  0  0  0
   13.6624   -6.0550   20.8780 C   0  0  0  0  0  0  0  0  0  0  0  0
   14.4352   -6.8675   20.1986 O   0  0  0  0  0  0  0  0  0  0  0  0
   17.3830   -9.6621   13.7527 O   0  0  0  0  0  0  0  0  0  0  0  0
   18.0057  -10.5250   12.8101 C   0  0  0  0  0  0  0  0  0  0  0  0
   17.4481   -8.9413    8.9423 N   0  0  0  0  0  0  0  0  0  0  0  0
   17.4150   -8.3696    7.7409 N   0  0  0  0  0  0  0  0  0  0  0  0
   18.5486   -7.6766    7.4776 C   0  0  0  0  0  0  0  0  0  0  0  0
   19.6577   -7.7513    8.7593 S   0  0  0  0  0  0  0  0  0  0  0  0
   18.5871   -8.7104    9.6288 C   0  0  0  0  0  0  0  0  0  0  0  0
   18.7866   -9.2169   10.8701 N   0  0  0  0  0  0  0  0  0  0  0  0
   17.8144   -9.9853   11.4381 C   0  0  0  0  0  0  0  0  0  0  0  0
   16.6150  -10.2351   10.7510 C   0  0  0  0  0  0  0  0  0  0  0  0
   16.4476   -9.6937    9.4716 C   0  0  0  0  0  0  0  0  0  0  0  0
   15.3854   -9.9026    8.8277 O   0  0  0  0  0  0  0  0  0  0  0  0
   18.7788   -6.9405    6.2074 C   0  0  0  0  0  0  0  0  0  0  0  0
 18 19  1  0  0  0
 19 20  2  0  0  0
 20 21  1  0  0  0
 21 22  1  0  0  0
 22 23  2  0  0  0
 23 24  1  0  0  0
 24 17  1  0  0  0
 17 16  1  0  0  0
 16  1  1  0  0  0
  1  2  2  0  0  0
  2  3  1  0  0  0
  3  4  2  0  0  0
  4  5  1  0  0  0
  5  6  2  0  0  0
  5  7  1  0  0  0
  7  8  1  0  0  0
  8  9  2  0  0  0
  8 11  1  0  0  0
 11 12  2  0  0  0
 12 13  1  0  0  0
 13 14  2  0  0  0
 14 15  1  0  0  0
 24 25  2  0  0  0
 25 26  1  0  0  0
 26 27  2  0  0  0
 20 28  1  0  0  0
 22 18  1  0  0  0
  6  1  1  0  0  0
 15 11  1  0  0  0
 26 18  1  0  0  0
  7 10  1  0  0  0
M  END
>  <minimizedAffinity>
-6.39786

>  <minimizedRMSD>
0.84008

$$$$
ChemDiv-8019-9437 MCULE-2752303003 MolPort-004-846-768 ZINC000012408648 ZINC12408648


 29 31  0  0  0  0  0  0  0  0999 V2000
   17.8858   -9.6443   12.7966 N   0  0  0  0  0  0  0  0  0  0  0  0
   16.9219   -9.7951   11.7475 C   0  0  0  0  0  0  0  0  0  0  0  0
   15.7533  -10.1810   12.0276 O   0  0  0  0  0  0  0  0  0  0  0  0
   18.7224   -9.1705   12.5848 H   0  0  0  0  0  0  0  0  0  0  0  0
   17.2653   -9.4654   10.3430 C   0  0  0  0  0  0  0  0  0  0  0  0
   16.4282   -9.9336    9.3205 C   0  0  0  0  0  0  0  0  0  0  0  0
   16.6962   -9.6622    8.0172 N   0  0  0  0  0  0  0  0  0  0  0  0
   17.7796   -8.9307    7.6463 C   0  0  0  0  0  0  0  0  0  0  0  0
   18.0309   -8.6659    6.2897 C   0  0  0  0  0  0  0  0  0  0  0  0
   16.9626   -9.2643    5.0307 Cl  0  0  0  0  0  0  0  0  0  0  0  0
   19.1501   -7.9127    5.9235 C   0  0  0  0  0  0  0  0  0  0  0  0
   20.0207   -7.4216    6.8993 C   0  0  0  0  0  0  0  0  0  0  0  0
   19.7772   -7.6810    8.2498 C   0  0  0  0  0  0  0  0  0  0  0  0
   18.6596   -8.4342    8.6339 C   0  0  0  0  0  0  0  0  0  0  0  0
   18.4006   -8.7044    9.9865 C   0  0  0  0  0  0  0  0  0  0  0  0
   19.2709   -8.2188   10.9593 O   0  0  0  0  0  0  0  0  0  0  0  0
   20.0202   -7.7153   10.7082 H   0  0  0  0  0  0  0  0  0  0  0  0
   17.0149   -9.6893   16.4214 C   0  0  0  0  0  0  0  0  0  0  0  0
   17.3834  -10.9882   16.7803 C   0  0  0  0  0  0  0  0  0  0  0  0
   17.9356  -11.8531   15.8330 C   0  0  0  0  0  0  0  0  0  0  0  0
   18.1121  -11.4352   14.5109 C   0  0  0  0  0  0  0  0  0  0  0  0
   18.9167  -12.5340   13.4006 Cl  0  0  0  0  0  0  0  0  0  0  0  0
   17.7179  -10.1343   14.1316 C   0  0  0  0  0  0  0  0  0  0  0  0
   17.1930   -9.2683   15.0961 C   0  0  0  0  0  0  0  0  0  0  0  0
   14.8246   -7.2362   18.4878 C   0  0  0  0  0  0  0  0  0  0  0  0
   15.2393   -8.0872   17.3426 C   0  0  0  0  0  0  0  0  0  0  0  0
   14.5071   -8.1452   16.3198 O   0  0  0  0  0  0  0  0  0  0  0  0
   16.4650   -8.8254   17.4254 N   0  0  0  0  0  0  0  0  0  0  0  0
   16.9828   -8.7296   18.2572 H   0  0  0  0  0  0  0  0  0  0  0  0
 25 26  1  0  0  0
 26 27  2  0  0  0
 26 28  1  0  0  0
 28 18  1  0  0  0
 18 19  2  0  0  0
 19 20  1  0  0  0
 20 21  2  0  0  0
 21 22  1  0  0  0
 21 23  1  0  0  0
 23  1  1  0  0  0
 23 24  2  0  0  0
  1  2  1  0  0  0
  2  3  2  0  0  0
  2  5  1  0  0  0
  5  6  2  0  0  0
  6  7  1  0  0  0
  7  8  2  0  0  0
  8  9  1  0  0  0
  9 10  1  0  0  0
  9 11  2  0  0  0
 11 12  1  0  0  0
 12 13  2  0  0  0
 13 14  1  0  0  0
 14 15  2  0  0  0
 14  8  1  0  0  0
 15 16  1  0  0  0
 15  5  1  0  0  0
 24 18  1  0  0  0
 28 29  1  0  0  0
  1  4  1  0  0  0
 16 17  1  0  0  0
M  END
>  <minimizedAffinity>
-6.39244

>  <minimizedRMSD>
0.83571

$$$$
ChemDiv-G756-0554 MCULE-4607750693 MolPort-007-879-264 PubChem-22580452 ZINC000021099832 ZINC21099832


 26 28  0  0  0  0  0  0  0  0999 V2000
   17.3680   -9.6190   13.7778 O   0  0  0  0  0  0  0  0  0  0  0  0
   16.5768   -9.2657   17.3752 C   0  0  0  0  0  0  0  0  0  0  0  0
   16.6559   -9.0134   15.9969 C   0  0  0  0  0  0  0  0  0  0  0  0
   17.3113   -9.9067   15.1437 C   0  0  0  0  0  0  0  0  0  0  0  0
   17.8944  -11.0666   15.6774 C   0  0  0  0  0  0  0  0  0  0  0  0
   17.8195  -11.3242   17.0483 C   0  0  0  0  0  0  0  0  0  0  0  0
   17.1624  -10.4256   17.8929 C   0  0  0  0  0  0  0  0  0  0  0  0
   14.7268   -7.6065   18.0090 C   0  0  0  0  0  0  0  0  0  0  0  0
   14.1490   -7.6782   16.8897 O   0  0  0  0  0  0  0  0  0  0  0  0
   15.9115   -8.3683   18.2747 N   0  0  0  0  0  0  0  0  0  0  0  0
   16.3106   -8.2646   19.1687 H   0  0  0  0  0  0  0  0  0  0  0  0
   12.7895   -6.2124   18.7948 C   0  0  0  0  0  0  0  0  0  0  0  0
   14.1903   -6.7224   19.0929 C   0  0  0  0  0  0  0  0  0  0  0  0
   17.9345  -10.5121   12.8279 C   0  0  0  0  0  0  0  0  0  0  0  0
   17.6212  -10.0419   11.4528 C   0  0  0  0  0  0  0  0  0  0  0  0
   16.3855  -10.3295   10.8838 C   0  0  0  0  0  0  0  0  0  0  0  0
   16.1083   -9.8532    9.6040 C   0  0  0  0  0  0  0  0  0  0  0  0
   14.9890  -10.1174    9.0849 O   0  0  0  0  0  0  0  0  0  0  0  0
   17.0401   -9.1101    8.9287 N   0  0  0  0  0  0  0  0  0  0  0  0
   16.7605   -8.6467    7.6742 C   0  0  0  0  0  0  0  0  0  0  0  0
   17.6914   -7.8856    6.9675 C   0  0  0  0  0  0  0  0  0  0  0  0
   18.9209   -7.5961    7.5528 C   0  0  0  0  0  0  0  0  0  0  0  0
   19.2123   -8.0657    8.8322 C   0  0  0  0  0  0  0  0  0  0  0  0
   20.5356   -7.7428    9.4389 C   0  0  0  0  0  0  0  0  0  0  0  0
   18.2545   -8.8311    9.5190 C   0  0  0  0  0  0  0  0  0  0  0  0
   18.5245   -9.2967   10.7689 N   0  0  0  0  0  0  0  0  0  0  0  0
 12 13  1  0  0  0
 13  8  1  0  0  0
  8  9  2  0  0  0
  8 10  1  0  0  0
 10  2  1  0  0  0
  2  3  2  0  0  0
  3  4  1  0  0  0
  4  1  1  0  0  0
  1 14  1  0  0  0
 14 15  1  0  0  0
 15 16  2  0  0  0
 16 17  1  0  0  0
 17 18  2  0  0  0
 17 19  1  0  0  0
 19 20  1  0  0  0
 20 21  2  0  0  0
 21 22  1  0  0  0
 22 23  2  0  0  0
 23 24  1  0  0  0
 23 25  1  0  0  0
 25 26  2  0  0  0
  4  5  2  0  0  0
  5  6  1  0  0  0
  6  7  2  0  0  0
  7  2  1  0  0  0
 26 15  1  0  0  0
 25 19  1  0  0  0
 10 11  1  0  0  0
M  END
>  <minimizedAffinity>
-6.36951

>  <minimizedRMSD>
0.92362

$$$$
ChemDiv-D483-1232 MCULE-6826273205 MolPort-007-710-898 PubChem-20899028 ZINC000015859187 ZINC15859187


 34 37  0  0  0  0  0  0  0  0999 V2000
   18.5922  -10.3750   14.9349 C   0  0  0  0  0  0  0  0  0  0  0  0
   17.5190   -9.5551   14.3945 N   0  0  0  0  0  0  0  0  0  0  0  0
   16.9233   -9.6406   13.1918 C   0  0  0  0  0  0  0  0  0  0  0  0
   15.9624   -8.7062   13.0546 N   0  0  0  0  0  0  0  0  0  0  0  0
   15.9306   -8.0142   14.1853 N   0  0  0  0  0  0  0  0  0  0  0  0
   16.8756   -8.5374   14.9901 C   0  0  0  0  0  0  0  0  0  0  0  0
   17.2867  -10.6161   12.1170 C   0  0  0  0  0  0  0  0  0  0  0  0
   17.1875   -9.9947   10.7502 C   0  0  0  0  0  0  0  0  0  0  0  0
   15.9619   -9.9611   10.0677 C   0  0  0  0  0  0  0  0  0  0  0  0
   14.7177  -10.5209   10.6718 C   0  0  0  0  0  0  0  0  0  0  0  0
   15.8885   -9.3890    8.8410 N   0  0  0  0  0  0  0  0  0  0  0  0
   16.9778   -8.8390    8.2494 C   0  0  0  0  0  0  0  0  0  0  0  0
   16.8481   -8.2595    6.9845 C   0  0  0  0  0  0  0  0  0  0  0  0
   17.9626   -7.6853    6.3756 C   0  0  0  0  0  0  0  0  0  0  0  0
   19.1908   -7.6955    7.0329 C   0  0  0  0  0  0  0  0  0  0  0  0
   20.3846   -7.0769    6.4013 C   0  0  0  0  0  0  0  0  0  0  0  0
   19.2876   -8.2808    8.2963 C   0  0  0  0  0  0  0  0  0  0  0  0
   18.1938   -8.8427    8.8939 N   0  0  0  0  0  0  0  0  0  0  0  0
   18.3082   -9.4072   10.1362 C   0  0  0  0  0  0  0  0  0  0  0  0
   19.4182   -9.3983   10.7408 O   0  0  0  0  0  0  0  0  0  0  0  0
   17.2238   -7.9319   16.6402 S   0  0  0  0  0  0  0  0  0  0  0  0
   15.7613   -8.7459   17.3544 C   0  0  0  0  0  0  0  0  0  0  0  0
   15.0599   -7.8331   18.3003 C   0  0  0  0  0  0  0  0  0  0  0  0
   14.2572   -6.9691   17.8567 O   0  0  0  0  0  0  0  0  0  0  0  0
   15.3070   -7.9644   19.7059 N   0  0  0  0  0  0  0  0  0  0  0  0
   15.9679   -8.6420   19.9767 H   0  0  0  0  0  0  0  0  0  0  0  0
   14.6905   -7.2103   20.7587 C   0  0  0  0  0  0  0  0  0  0  0  0
   14.9179   -7.5941   22.0838 C   0  0  0  0  0  0  0  0  0  0  0  0
   14.3283   -6.8876   23.1363 C   0  0  0  0  0  0  0  0  0  0  0  0
   13.5039   -5.7894   22.8743 C   0  0  0  0  0  0  0  0  0  0  0  0
   12.8970   -5.0576   24.0232 C   0  0  0  0  0  0  0  0  0  0  0  0
   13.2667   -5.3978   21.5440 C   0  0  0  0  0  0  0  0  0  0  0  0
   12.3943   -4.2335   21.2158 C   0  0  0  0  0  0  0  0  0  0  0  0
   13.8594   -6.1103   20.4965 C   0  0  0  0  0  0  0  0  0  0  0  0
  1  2  1  0  0  0
  2  3  1  0  0  0
  3  7  1  0  0  0
  3  4  2  0  0  0
  7  8  1  0  0  0
  8  9  2  0  0  0
  9 10  1  0  0  0
  9 11  1  0  0  0
 11 12  2  0  0  0
 12 13  1  0  0  0
 13 14  2  0  0  0
 14 15  1  0  0  0
 15 16  1  0  0  0
 15 17  2  0  0  0
 17 18  1  0  0  0
 18 19  1  0  0  0
 18 12  1  0  0  0
 19 20  2  0  0  0
 19  8  1  0  0  0
  4  5  1  0  0  0
  5  6  2  0  0  0
  6 21  1  0  0  0
  6  2  1  0  0  0
 21 22  1  0  0  0
 22 23  1  0  0  0
 23 24  2  0  0  0
 23 25  1  0  0  0
 25 27  1  0  0  0
 27 28  2  0  0  0
 28 29  1  0  0  0
 29 30  2  0  0  0
 30 31  1  0  0  0
 30 32  1  0  0  0
 32 33  1  0  0  0
 32 34  2  0  0  0
 34 27  1  0  0  0
 25 26  1  0  0  0
M  END
>  <minimizedAffinity>
-6.36269

>  <minimizedRMSD>
2.00437

$$$$
ChemDiv-C679-4364 MCULE-1121626589 MolPort-007-655-849 PubChem-20874247 ZINC000013368071


 28 30  0  0  0  0  0  0  0  0999 V2000
   16.7954   -9.2819   13.6695 O   0  0  0  0  0  0  0  0  0  0  0  0
   16.6906   -9.3523   15.0609 C   0  0  0  0  0  0  0  0  0  0  0  0
   17.2884  -10.3900   15.7934 C   0  0  0  0  0  0  0  0  0  0  0  0
   17.1639  -10.4312   17.1840 C   0  0  0  0  0  0  0  0  0  0  0  0
   16.4423   -9.4372   17.8503 C   0  0  0  0  0  0  0  0  0  0  0  0
   15.8413   -8.3973   17.1335 C   0  0  0  0  0  0  0  0  0  0  0  0
   15.9705   -8.3621   15.7366 C   0  0  0  0  0  0  0  0  0  0  0  0
   15.1114   -7.3950   17.8537 N   0  0  0  0  0  0  0  0  0  0  0  0
   13.7092   -7.4041   18.1531 C   0  0  0  0  0  0  0  0  0  0  0  0
   12.9704   -8.3601   17.7972 O   0  0  0  0  0  0  0  0  0  0  0  0
   15.6264   -6.6203   18.1759 H   0  0  0  0  0  0  0  0  0  0  0  0
   13.1181   -6.2710   18.9209 C   0  0  0  0  0  0  0  0  0  0  0  0
   13.5493   -6.3204   20.3778 C   0  0  0  0  0  0  0  0  0  0  0  0
   12.9920   -7.5592   21.0533 C   0  0  0  0  0  0  0  0  0  0  0  0
   13.0321   -5.0910   21.0936 C   0  0  0  0  0  0  0  0  0  0  0  0
   17.7080  -10.0804   12.9273 C   0  0  0  0  0  0  0  0  0  0  0  0
   17.3779   -9.0948    8.8412 N   0  0  0  0  0  0  0  0  0  0  0  0
   17.4072   -8.6959    7.5719 N   0  0  0  0  0  0  0  0  0  0  0  0
   18.5168   -7.9700    7.2928 C   0  0  0  0  0  0  0  0  0  0  0  0
   19.5144   -7.7793    8.6527 S   0  0  0  0  0  0  0  0  0  0  0  0
   18.4394   -8.6883    9.5690 C   0  0  0  0  0  0  0  0  0  0  0  0
   18.5650   -8.9995   10.8821 N   0  0  0  0  0  0  0  0  0  0  0  0
   17.5984   -9.7505   11.4820 C   0  0  0  0  0  0  0  0  0  0  0  0
   16.4784  -10.1814   10.7515 C   0  0  0  0  0  0  0  0  0  0  0  0
   16.3850   -9.8369    9.3986 C   0  0  0  0  0  0  0  0  0  0  0  0
   15.3956  -10.2117    8.7147 O   0  0  0  0  0  0  0  0  0  0  0  0
   18.7834   -7.3638    5.9607 C   0  0  0  0  0  0  0  0  0  0  0  0
   20.2673   -7.4226    5.6563 C   0  0  0  0  0  0  0  0  0  0  0  0
 17 18  1  0  0  0
 18 19  2  0  0  0
 19 20  1  0  0  0
 20 21  1  0  0  0
 21 22  2  0  0  0
 22 23  1  0  0  0
 23 16  1  0  0  0
 16  1  1  0  0  0
  1  2  1  0  0  0
  2  3  2  0  0  0
  3  4  1  0  0  0
  4  5  2  0  0  0
  5  6  1  0  0  0
  6  7  2  0  0  0
  6  8  1  0  0  0
  8  9  1  0  0  0
  9 12  1  0  0  0
 12 13  1  0  0  0
 13 14  1  0  0  0
 13 15  1  0  0  0
  9 10  2  0  0  0
 23 24  2  0  0  0
 24 25  1  0  0  0
 25 26  2  0  0  0
 19 27  1  0  0  0
 27 28  1  0  0  0
 21 17  1  0  0  0
  7  2  1  0  0  0
 25 17  1  0  0  0
  8 11  1  0  0  0
M  END
>  <minimizedAffinity>
-6.35695

>  <minimizedRMSD>
1.56550

$$$$
ChemDiv-G357-0502 MCULE-8056525405 MolPort-007-847-205 PubChem-46343279 ZINC000015771600


 33 36  0  0  0  0  0  0  0  0999 V2000
   16.8981   -9.3192   16.0219 C   0  0  0  0  0  0  0  0  0  0  0  0
   17.1936   -9.5546   17.3719 C   0  0  0  0  0  0  0  0  0  0  0  0
   16.5167   -8.8550   18.3750 C   0  0  0  0  0  0  0  0  0  0  0  0
   15.5377   -7.9127   18.0441 C   0  0  0  0  0  0  0  0  0  0  0  0
   15.2419   -7.6770   16.6934 C   0  0  0  0  0  0  0  0  0  0  0  0
   15.9176   -8.3757   15.6895 C   0  0  0  0  0  0  0  0  0  0  0  0
   14.8650   -7.2167   19.1023 N   0  0  0  0  0  0  0  0  0  0  0  0
   13.4520   -7.1943   19.3577 C   0  0  0  0  0  0  0  0  0  0  0  0
   12.6546   -7.8246   18.6110 O   0  0  0  0  0  0  0  0  0  0  0  0
   15.4319   -6.6994   19.7190 H   0  0  0  0  0  0  0  0  0  0  0  0
   12.9292   -6.4270   20.5019 C   0  0  0  0  0  0  0  0  0  0  0  0
   13.5461   -6.5193   21.7583 C   0  0  0  0  0  0  0  0  0  0  0  0
   13.0507   -5.7922   22.8446 C   0  0  0  0  0  0  0  0  0  0  0  0
   11.9348   -4.9671   22.6824 C   0  0  0  0  0  0  0  0  0  0  0  0
   11.3136   -4.8691   21.4345 C   0  0  0  0  0  0  0  0  0  0  0  0
   11.8090   -5.5962   20.3483 C   0  0  0  0  0  0  0  0  0  0  0  0
   11.3135   -4.0583   24.0428 Cl  0  0  0  0  0  0  0  0  0  0  0  0
   17.6067  -10.0529   14.9610 C   0  0  0  0  0  0  0  0  0  0  0  0
   18.4862  -10.9068   15.2618 O   0  0  0  0  0  0  0  0  0  0  0  0
   17.3005   -9.7996   13.6220 O   0  0  0  0  0  0  0  0  0  0  0  0
   17.3779  -10.8117   12.6291 C   0  0  0  0  0  0  0  0  0  0  0  0
   17.5094   -8.9779    8.8345 N   0  0  0  0  0  0  0  0  0  0  0  0
   17.6871   -8.3287    7.6864 N   0  0  0  0  0  0  0  0  0  0  0  0
   18.8628   -7.6553    7.6600 C   0  0  0  0  0  0  0  0  0  0  0  0
   19.7336   -7.8331    9.1064 S   0  0  0  0  0  0  0  0  0  0  0  0
   18.5194   -8.8208    9.7161 C   0  0  0  0  0  0  0  0  0  0  0  0
   18.4973   -9.4077   10.9376 N   0  0  0  0  0  0  0  0  0  0  0  0
   17.4312  -10.1843   11.2823 C   0  0  0  0  0  0  0  0  0  0  0  0
   16.3614  -10.3584   10.3887 C   0  0  0  0  0  0  0  0  0  0  0  0
   16.4217   -9.7342    9.1378 C   0  0  0  0  0  0  0  0  0  0  0  0
   15.4801   -9.8733    8.3128 O   0  0  0  0  0  0  0  0  0  0  0  0
   19.2954   -6.8106    6.5142 C   0  0  0  0  0  0  0  0  0  0  0  0
   19.8669   -7.6856    5.4166 C   0  0  0  0  0  0  0  0  0  0  0  0
 22 23  1  0  0  0
 23 24  2  0  0  0
 24 25  1  0  0  0
 25 26  1  0  0  0
 26 27  2  0  0  0
 27 28  1  0  0  0
 28 21  1  0  0  0
 21 20  1  0  0  0
 20 18  1  0  0  0
 18 19  2  0  0  0
 18  1  1  0  0  0
  1  2  2  0  0  0
  2  3  1  0  0  0
  3  4  2  0  0  0
  4  5  1  0  0  0
  5  6  2  0  0  0
  4  7  1  0  0  0
  7  8  1  0  0  0
  8  9  2  0  0  0
  8 11  1  0  0  0
 11 12  2  0  0  0
 12 13  1  0  0  0
 13 14  2  0  0  0
 14 15  1  0  0  0
 15 16  2  0  0  0
 14 17  1  0  0  0
 28 29  2  0  0  0
 29 30  1  0  0  0
 30 31  2  0  0  0
 24 32  1  0  0  0
 32 33  1  0  0  0
 26 22  1  0  0  0
  6  1  1  0  0  0
 16 11  1  0  0  0
 30 22  1  0  0  0
  7 10  1  0  0  0
M  END
>  <minimizedAffinity>
-6.34965

>  <minimizedRMSD>
2.01265

$$$$
ChemDiv-D549-1890 MCULE-8503638477 MolPort-010-800-776 PubChem-53046709 ZINC000064794094


 31 35  0  0  0  0  0  0  0  0999 V2000
   16.6406   -9.6496   12.0229 C   0  0  0  0  0  0  0  0  0  0  0  0
   15.3476   -9.4615   12.3458 N   0  0  0  0  0  0  0  0  0  0  0  0
   15.2121   -9.7951   13.6183 N   0  0  0  0  0  0  0  0  0  0  0  0
   16.4210  -10.1931   14.0540 C   0  0  0  0  0  0  0  0  0  0  0  0
   17.3556  -10.1234   13.0686 N   0  0  0  0  0  0  0  0  0  0  0  0
   17.1593   -9.4091   10.6646 C   0  0  0  0  0  0  0  0  0  0  0  0
   18.2554   -8.6125   10.3053 C   0  0  0  0  0  0  0  0  0  0  0  0
   19.0252   -7.8524   11.2332 N   0  0  0  0  0  0  0  0  0  0  0  0
   18.4474   -8.5445    8.9225 C   0  0  0  0  0  0  0  0  0  0  0  0
   17.5105   -9.2697    8.2108 C   0  0  0  0  0  0  0  0  0  0  0  0
   17.5079   -9.3221    6.8559 N   0  0  0  0  0  0  0  0  0  0  0  0
   18.4632   -8.6406    6.1592 C   0  0  0  0  0  0  0  0  0  0  0  0
   19.4393   -7.8842    6.8369 C   0  0  0  0  0  0  0  0  0  0  0  0
   19.4320   -7.8309    8.2396 C   0  0  0  0  0  0  0  0  0  0  0  0
   16.4201   -9.9989    9.2561 S   0  0  0  0  0  0  0  0  0  0  0  0
   18.8529   -7.9341   12.1991 H   0  0  0  0  0  0  0  0  0  0  0  0
   19.7291   -7.2456   10.9083 H   0  0  0  0  0  0  0  0  0  0  0  0
   18.7556  -10.5766   12.9948 C   0  0  0  0  0  0  0  0  0  0  0  0
   18.9124  -12.0334   13.3818 C   0  0  0  0  0  0  0  0  0  0  0  0
   19.3138  -10.9393   14.3557 C   0  0  0  0  0  0  0  0  0  0  0  0
   16.6802  -10.7490   15.7440 S   0  0  0  0  0  0  0  0  0  0  0  0
   17.3580   -9.1460   16.2781 C   0  0  0  0  0  0  0  0  0  0  0  0
   16.2753   -8.2626   16.7943 C   0  0  0  0  0  0  0  0  0  0  0  0
   15.6346   -7.5330   15.9917 O   0  0  0  0  0  0  0  0  0  0  0  0
   15.9759   -8.2447   18.1920 N   0  0  0  0  0  0  0  0  0  0  0  0
   16.4910   -8.8300   18.7931 H   0  0  0  0  0  0  0  0  0  0  0  0
   14.9404   -7.3958   18.7617 C   0  0  0  0  0  0  0  0  0  0  0  0
   14.7326   -7.7351   20.2258 C   0  0  0  0  0  0  0  0  0  0  0  0
   13.2405   -7.6744   20.4480 C   0  0  0  0  0  0  0  0  0  0  0  0
   12.6304   -8.0866   19.1288 C   0  0  0  0  0  0  0  0  0  0  0  0
   13.6190   -7.6592   18.0612 C   0  0  0  0  0  0  0  0  0  0  0  0
  1  2  2  0  0  0
  2  3  1  0  0  0
  3  4  2  0  0  0
  4 21  1  0  0  0
 21 22  1  0  0  0
 22 23  1  0  0  0
 23 24  2  0  0  0
 23 25  1  0  0  0
 25 27  1  0  0  0
 27 28  1  0  0  0
 28 29  1  0  0  0
 29 30  1  0  0  0
 30 31  1  0  0  0
  4  5  1  0  0  0
  5 18  1  0  0  0
 18 19  1  0  0  0
 19 20  1  0  0  0
  1  6  1  0  0  0
  6  7  2  0  0  0
  7  8  1  0  0  0
  7  9  1  0  0  0
  9 10  2  0  0  0
 10 11  1  0  0  0
 11 12  2  0  0  0
 12 13  1  0  0  0
 13 14  2  0  0  0
 10 15  1  0  0  0
  5  1  1  0  0  0
 20 18  1  0  0  0
 15  6  1  0  0  0
 31 27  1  0  0  0
 14  9  1  0  0  0
 25 26  1  0  0  0
  8 16  1  0  0  0
  8 17  1  0  0  0
M  END
>  <minimizedAffinity>
-6.32810

>  <minimizedRMSD>
0.91230

$$$$
ChemDiv-C679-4195 MCULE-2727294361 MolPort-007-655-806 PubChem-46258328 ZINC000013367994 ZINC13367994


 32 35  0  0  0  0  0  0  0  0999 V2000
   16.6645   -9.0813   14.6661 C   0  0  0  0  0  0  0  0  0  0  0  0
   17.4151  -10.0906   15.2891 C   0  0  0  0  0  0  0  0  0  0  0  0
   17.4143  -10.2094   16.6810 C   0  0  0  0  0  0  0  0  0  0  0  0
   16.6649   -9.3216   17.4574 C   0  0  0  0  0  0  0  0  0  0  0  0
   15.9119   -8.3114   16.8501 C   0  0  0  0  0  0  0  0  0  0  0  0
   15.9174   -8.1979   15.4515 C   0  0  0  0  0  0  0  0  0  0  0  0
   15.1576   -7.4197   17.6824 N   0  0  0  0  0  0  0  0  0  0  0  0
   13.7909   -7.5685   18.0956 C   0  0  0  0  0  0  0  0  0  0  0  0
   13.1297   -8.5781   17.7274 O   0  0  0  0  0  0  0  0  0  0  0  0
   15.6285   -6.6179   18.0057 H   0  0  0  0  0  0  0  0  0  0  0  0
   13.1335   -6.5486   18.9569 C   0  0  0  0  0  0  0  0  0  0  0  0
   13.3897   -6.3986   20.3463 C   0  0  0  0  0  0  0  0  0  0  0  0
   14.3522   -7.2541   21.0975 C   0  0  0  0  0  0  0  0  0  0  0  0
   12.7217   -5.4082   21.0749 C   0  0  0  0  0  0  0  0  0  0  0  0
   11.8036   -4.5625   20.4525 C   0  0  0  0  0  0  0  0  0  0  0  0
   11.5447   -4.7007   19.0905 C   0  0  0  0  0  0  0  0  0  0  0  0
   12.2041   -5.6845   18.3524 C   0  0  0  0  0  0  0  0  0  0  0  0
   16.6437   -8.9343   13.2769 O   0  0  0  0  0  0  0  0  0  0  0  0
   16.1205   -9.9294   12.4072 C   0  0  0  0  0  0  0  0  0  0  0  0
   19.0674   -8.0004    7.4542 C   0  0  0  0  0  0  0  0  0  0  0  0
   18.0573   -8.8983    7.3203 N   0  0  0  0  0  0  0  0  0  0  0  0
   17.5159   -9.2266    8.4910 N   0  0  0  0  0  0  0  0  0  0  0  0
   18.0798   -8.6085    9.5495 C   0  0  0  0  0  0  0  0  0  0  0  0
   19.3242   -7.5838    9.0818 S   0  0  0  0  0  0  0  0  0  0  0  0
   17.6494   -8.8273   10.8159 N   0  0  0  0  0  0  0  0  0  0  0  0
   16.6236   -9.6998   11.0273 C   0  0  0  0  0  0  0  0  0  0  0  0
   16.0114  -10.3514    9.9439 C   0  0  0  0  0  0  0  0  0  0  0  0
   16.4854  -10.0980    8.6520 C   0  0  0  0  0  0  0  0  0  0  0  0
   15.9605  -10.6694    7.6596 O   0  0  0  0  0  0  0  0  0  0  0  0
   19.8588   -8.3851    5.1110 C   0  0  0  0  0  0  0  0  0  0  0  0
   19.8719   -7.4558    6.3125 C   0  0  0  0  0  0  0  0  0  0  0  0
   19.3403   -6.0970    5.9004 C   0  0  0  0  0  0  0  0  0  0  0  0
 30 31  1  0  0  0
 31 32  1  0  0  0
 31 20  1  0  0  0
 20 21  2  0  0  0
 21 22  1  0  0  0
 22 23  1  0  0  0
 23 24  1  0  0  0
 23 25  2  0  0  0
 24 20  1  0  0  0
 25 26  1  0  0  0
 26 19  1  0  0  0
 26 27  2  0  0  0
 19 18  1  0  0  0
 18  1  1  0  0  0
  1  2  2  0  0  0
  2  3  1  0  0  0
  3  4  2  0  0  0
  4  5  1  0  0  0
  5  7  1  0  0  0
  5  6  2  0  0  0
  7  8  1  0  0  0
  8  9  2  0  0  0
  8 11  1  0  0  0
 11 12  2  0  0  0
 12 13  1  0  0  0
 12 14  1  0  0  0
 14 15  2  0  0  0
 15 16  1  0  0  0
 16 17  2  0  0  0
 17 11  1  0  0  0
  6  1  1  0  0  0
 27 28  1  0  0  0
 28 29  2  0  0  0
 28 22  1  0  0  0
  7 10  1  0  0  0
M  END
>  <minimizedAffinity>
-6.32452

>  <minimizedRMSD>
1.50195

$$$$
ChemDiv-G756-0771 MCULE-1745750795 MolPort-010-744-662 PubChem-50802595 ZINC000033268580 ZINC33268580


 28 30  0  0  0  0  0  0  0  0999 V2000
   16.4450   -9.0338   17.3318 C   0  0  0  0  0  0  0  0  0  0  0  0
   16.9560  -10.1643   17.9698 C   0  0  0  0  0  0  0  0  0  0  0  0
   17.5120  -11.2034   17.2233 C   0  0  0  0  0  0  0  0  0  0  0  0
   17.5655  -11.1308   15.8280 C   0  0  0  0  0  0  0  0  0  0  0  0
   18.1790  -12.2865   15.1153 C   0  0  0  0  0  0  0  0  0  0  0  0
   17.0480   -9.9865   15.1648 C   0  0  0  0  0  0  0  0  0  0  0  0
   16.4958   -8.9557   15.9339 C   0  0  0  0  0  0  0  0  0  0  0  0
   14.4894   -7.6531   18.2476 C   0  0  0  0  0  0  0  0  0  0  0  0
   13.6106   -8.2753   17.5925 O   0  0  0  0  0  0  0  0  0  0  0  0
   15.8785   -7.9867   18.1312 N   0  0  0  0  0  0  0  0  0  0  0  0
   16.5089   -7.4405   18.6542 H   0  0  0  0  0  0  0  0  0  0  0  0
   14.0860   -6.5370   19.1471 C   0  0  0  0  0  0  0  0  0  0  0  0
   12.7414   -5.8945   21.1224 C   0  0  0  0  0  0  0  0  0  0  0  0
   13.1408   -7.0425   20.2200 C   0  0  0  0  0  0  0  0  0  0  0  0
   17.0462   -9.8023   13.7727 O   0  0  0  0  0  0  0  0  0  0  0  0
   17.9500  -10.4069   12.8590 C   0  0  0  0  0  0  0  0  0  0  0  0
   17.6205   -9.9785   11.4744 C   0  0  0  0  0  0  0  0  0  0  0  0
   16.3794  -10.2857   10.9277 C   0  0  0  0  0  0  0  0  0  0  0  0
   16.0869   -9.8480    9.6377 C   0  0  0  0  0  0  0  0  0  0  0  0
   14.9626  -10.1301    9.1390 O   0  0  0  0  0  0  0  0  0  0  0  0
   17.0092   -9.1231    8.9305 N   0  0  0  0  0  0  0  0  0  0  0  0
   16.7146   -8.6978    7.6659 C   0  0  0  0  0  0  0  0  0  0  0  0
   17.6359   -7.9561    6.9267 C   0  0  0  0  0  0  0  0  0  0  0  0
   18.8712   -7.6466    7.4895 C   0  0  0  0  0  0  0  0  0  0  0  0
   19.1776   -8.0772    8.7789 C   0  0  0  0  0  0  0  0  0  0  0  0
   20.5063   -7.7329    9.3614 C   0  0  0  0  0  0  0  0  0  0  0  0
   18.2292   -8.8238    9.4988 C   0  0  0  0  0  0  0  0  0  0  0  0
   18.5141   -9.2516   10.7589 N   0  0  0  0  0  0  0  0  0  0  0  0
 13 14  1  0  0  0
 14 12  1  0  0  0
 12  8  1  0  0  0
  8  9  2  0  0  0
  8 10  1  0  0  0
 10  1  1  0  0  0
  1  2  2  0  0  0
  2  3  1  0  0  0
  3  4  2  0  0  0
  4  5  1  0  0  0
  4  6  1  0  0  0
  6 15  1  0  0  0
  6  7  2  0  0  0
 15 16  1  0  0  0
 16 17  1  0  0  0
 17 18  2  0  0  0
 18 19  1  0  0  0
 19 20  2  0  0  0
 19 21  1  0  0  0
 21 22  1  0  0  0
 22 23  2  0  0  0
 23 24  1  0  0  0
 24 25  2  0  0  0
 25 26  1  0  0  0
 25 27  1  0  0  0
 27 28  2  0  0  0
 27 21  1  0  0  0
 28 17  1  0  0  0
  7  1  1  0  0  0
 10 11  1  0  0  0
M  END
>  <minimizedAffinity>
-6.27689

>  <minimizedRMSD>
1.16408

$$$$
ChemDiv-P169-0376 MCULE-2477116473 MolPort-010-921-302 PubChem-53163097 ZINC000065217122 ZINC65217122


 27 29  0  0  0  0  0  0  0  0999 V2000
   17.9343   -9.7494   12.0888 N   0  0  0  0  0  0  0  0  0  0  0  0
   17.9927  -10.4922   13.3089 C   0  0  0  0  0  0  0  0  0  0  0  0
   18.5197  -11.6385   13.3237 O   0  0  0  0  0  0  0  0  0  0  0  0
   17.5176   -8.8575   12.0934 H   0  0  0  0  0  0  0  0  0  0  0  0
   17.4383   -9.9190   14.5476 C   0  0  0  0  0  0  0  0  0  0  0  0
   17.6513  -10.5515   15.7805 C   0  0  0  0  0  0  0  0  0  0  0  0
   17.1249  -10.0063   16.9550 C   0  0  0  0  0  0  0  0  0  0  0  0
   16.3795   -8.8237   16.9148 C   0  0  0  0  0  0  0  0  0  0  0  0
   16.1657   -8.1899   15.6819 C   0  0  0  0  0  0  0  0  0  0  0  0
   16.6913   -8.7339   14.5070 C   0  0  0  0  0  0  0  0  0  0  0  0
   15.8562   -8.2958   18.1413 N   0  0  0  0  0  0  0  0  0  0  0  0
   14.6334   -7.5673   18.3083 C   0  0  0  0  0  0  0  0  0  0  0  0
   14.2483   -7.0943   19.6631 C   0  0  0  0  0  0  0  0  0  0  0  0
   13.8792   -7.3199   17.3308 O   0  0  0  0  0  0  0  0  0  0  0  0
   16.3924   -8.4499   18.9524 H   0  0  0  0  0  0  0  0  0  0  0  0
   18.4705  -10.2691   10.8420 C   0  0  0  0  0  0  0  0  0  0  0  0
   19.2545   -7.9113    7.1528 C   0  0  0  0  0  0  0  0  0  0  0  0
   19.3647   -8.6569    8.2873 N   0  0  0  0  0  0  0  0  0  0  0  0
   18.1585   -9.0504    8.6651 N   0  0  0  0  0  0  0  0  0  0  0  0
   17.1422   -8.6659    7.9306 C   0  0  0  0  0  0  0  0  0  0  0  0
   17.6221   -7.7348    6.6228 S   0  0  0  0  0  0  0  0  0  0  0  0
   15.9370   -9.0402    8.4026 N   0  0  0  0  0  0  0  0  0  0  0  0
   16.2894   -9.7237    9.5325 C   0  0  0  0  0  0  0  0  0  0  0  0
   15.3003  -10.3311   10.4642 C   0  0  0  0  0  0  0  0  0  0  0  0
   17.6760   -9.7377    9.6985 C   0  0  0  0  0  0  0  0  0  0  0  0
   19.9874   -6.5447    5.2364 C   0  0  0  0  0  0  0  0  0  0  0  0
   20.4340   -7.3312    6.4532 C   0  0  0  0  0  0  0  0  0  0  0  0
 26 27  1  0  0  0
 27 17  1  0  0  0
 17 18  2  0  0  0
 18 19  1  0  0  0
 19 20  1  0  0  0
 20 21  1  0  0  0
 20 22  2  0  0  0
 21 17  1  0  0  0
 22 23  1  0  0  0
 23 24  1  0  0  0
 23 25  2  0  0  0
 25 16  1  0  0  0
 25 19  1  0  0  0
 16  1  1  0  0  0
  1  2  1  0  0  0
  2  3  2  0  0  0
  2  5  1  0  0  0
  5  6  2  0  0  0
  6  7  1  0  0  0
  7  8  2  0  0  0
  8 11  1  0  0  0
  8  9  1  0  0  0
 11 12  1  0  0  0
 12 13  1  0  0  0
 12 14  2  0  0  0
  9 10  2  0  0  0
 10  5  1  0  0  0
  1  4  1  0  0  0
 11 15  1  0  0  0
M  END
>  <minimizedAffinity>
-6.27446

>  <minimizedRMSD>
1.27352

$$$$
ChemDiv-D483-1785 MCULE-5219179107 MolPort-010-677-219 PubChem-50751158 ZINC000021805230 ZINC21805230


 33 36  0  0  0  0  0  0  0  0999 V2000
   15.8533   -8.6487   13.6272 C   0  0  0  0  0  0  0  0  0  0  0  0
   16.9904   -9.5379   13.8034 N   0  0  0  0  0  0  0  0  0  0  0  0
   17.3533  -10.5871   13.0463 C   0  0  0  0  0  0  0  0  0  0  0  0
   18.4810  -11.1601   13.5122 N   0  0  0  0  0  0  0  0  0  0  0  0
   18.8499  -10.4713   14.5841 N   0  0  0  0  0  0  0  0  0  0  0  0
   17.9422   -9.4905   14.7501 C   0  0  0  0  0  0  0  0  0  0  0  0
   16.6081  -11.0674   11.8420 C   0  0  0  0  0  0  0  0  0  0  0  0
   16.8571  -10.1650   10.6667 C   0  0  0  0  0  0  0  0  0  0  0  0
   15.8482   -9.8998    9.7288 C   0  0  0  0  0  0  0  0  0  0  0  0
   14.4794  -10.4736    9.8733 C   0  0  0  0  0  0  0  0  0  0  0  0
   16.1098   -9.0991    8.6666 N   0  0  0  0  0  0  0  0  0  0  0  0
   17.3334   -8.5437    8.4830 C   0  0  0  0  0  0  0  0  0  0  0  0
   17.5527   -7.7267    7.3712 C   0  0  0  0  0  0  0  0  0  0  0  0
   18.8079   -7.1535    7.1779 C   0  0  0  0  0  0  0  0  0  0  0  0
   19.8296   -7.3995    8.0924 C   0  0  0  0  0  0  0  0  0  0  0  0
   19.5785   -8.2204    9.1933 C   0  0  0  0  0  0  0  0  0  0  0  0
   18.3468   -8.7827    9.3829 N   0  0  0  0  0  0  0  0  0  0  0  0
   18.1213   -9.5853   10.4692 C   0  0  0  0  0  0  0  0  0  0  0  0
   19.0465   -9.8090   11.3011 O   0  0  0  0  0  0  0  0  0  0  0  0
   18.0101   -8.2831   16.0729 S   0  0  0  0  0  0  0  0  0  0  0  0
   16.7604   -9.1581   17.0637 C   0  0  0  0  0  0  0  0  0  0  0  0
   15.6692   -8.2279   17.4658 C   0  0  0  0  0  0  0  0  0  0  0  0
   15.1038   -7.5212   16.5895 O   0  0  0  0  0  0  0  0  0  0  0  0
   15.2352   -8.1892   18.8295 N   0  0  0  0  0  0  0  0  0  0  0  0
   15.5823   -8.8814   19.4375 H   0  0  0  0  0  0  0  0  0  0  0  0
   14.3333   -7.2183   19.3764 C   0  0  0  0  0  0  0  0  0  0  0  0
   14.4150   -6.7781   20.7186 C   0  0  0  0  0  0  0  0  0  0  0  0
   15.4178   -7.3648   21.6598 C   0  0  0  0  0  0  0  0  0  0  0  0
   13.4913   -5.8261   21.1929 C   0  0  0  0  0  0  0  0  0  0  0  0
   13.5450   -5.2309   22.8464 Cl  0  0  0  0  0  0  0  0  0  0  0  0
   12.4883   -5.3435   20.3487 C   0  0  0  0  0  0  0  0  0  0  0  0
   12.3914   -5.8030   19.0359 C   0  0  0  0  0  0  0  0  0  0  0  0
   13.3064   -6.7404   18.5562 C   0  0  0  0  0  0  0  0  0  0  0  0
  1  2  1  0  0  0
  2  3  1  0  0  0
  3  7  1  0  0  0
  3  4  2  0  0  0
  7  8  1  0  0  0
  8  9  2  0  0  0
  9 10  1  0  0  0
  9 11  1  0  0  0
 11 12  2  0  0  0
 12 13  1  0  0  0
 13 14  2  0  0  0
 14 15  1  0  0  0
 15 16  2  0  0  0
 16 17  1  0  0  0
 17 18  1  0  0  0
 17 12  1  0  0  0
 18 19  2  0  0  0
 18  8  1  0  0  0
  4  5  1  0  0  0
  5  6  2  0  0  0
  6 20  1  0  0  0
  6  2  1  0  0  0
 20 21  1  0  0  0
 21 22  1  0  0  0
 22 23  2  0  0  0
 22 24  1  0  0  0
 24 26  1  0  0  0
 26 27  2  0  0  0
 27 28  1  0  0  0
 27 29  1  0  0  0
 29 30  1  0  0  0
 29 31  2  0  0  0
 31 32  1  0  0  0
 32 33  2  0  0  0
 33 26  1  0  0  0
 24 25  1  0  0  0
M  END
>  <minimizedAffinity>
-6.27346

>  <minimizedRMSD>
3.39016

$$$$
ChemDiv-D483-1312 MCULE-3624154175 MolPort-007-710-916 PubChem-20899046 ZINC000015859208 ZINC15859208


 34 37  0  0  0  0  0  0  0  0999 V2000
   16.2118   -9.0952   13.7310 C   0  0  0  0  0  0  0  0  0  0  0  0
   17.2664   -9.7211   12.9493 N   0  0  0  0  0  0  0  0  0  0  0  0
   17.6732   -9.4189   11.7048 C   0  0  0  0  0  0  0  0  0  0  0  0
   18.6962  -10.2074   11.3192 N   0  0  0  0  0  0  0  0  0  0  0  0
   18.9529  -11.0289   12.3286 N   0  0  0  0  0  0  0  0  0  0  0  0
   18.0828  -10.7246   13.3108 C   0  0  0  0  0  0  0  0  0  0  0  0
   17.0727   -8.3505   10.8477 C   0  0  0  0  0  0  0  0  0  0  0  0
   17.4362   -8.5582    9.4046 C   0  0  0  0  0  0  0  0  0  0  0  0
   16.7479   -9.4865    8.6093 C   0  0  0  0  0  0  0  0  0  0  0  0
   15.6083  -10.2823    9.1497 C   0  0  0  0  0  0  0  0  0  0  0  0
   17.1132   -9.6675    7.3164 N   0  0  0  0  0  0  0  0  0  0  0  0
   18.1379   -8.9700    6.7658 C   0  0  0  0  0  0  0  0  0  0  0  0
   18.4762   -9.1943    5.4289 C   0  0  0  0  0  0  0  0  0  0  0  0
   19.5280   -8.4805    4.8581 C   0  0  0  0  0  0  0  0  0  0  0  0
   20.2293   -7.5528    5.6248 C   0  0  0  0  0  0  0  0  0  0  0  0
   21.3532   -6.7846    5.0291 C   0  0  0  0  0  0  0  0  0  0  0  0
   19.8674   -7.3508    6.9574 C   0  0  0  0  0  0  0  0  0  0  0  0
   18.8354   -8.0514    7.5168 N   0  0  0  0  0  0  0  0  0  0  0  0
   18.4956   -7.8393    8.8263 C   0  0  0  0  0  0  0  0  0  0  0  0
   19.1302   -6.9964    9.5224 O   0  0  0  0  0  0  0  0  0  0  0  0
   18.0349  -11.5631   14.8943 S   0  0  0  0  0  0  0  0  0  0  0  0
   16.5633  -10.6471   15.4490 C   0  0  0  0  0  0  0  0  0  0  0  0
   16.9025   -9.7462   16.5861 C   0  0  0  0  0  0  0  0  0  0  0  0
   18.1105   -9.5628   16.8923 O   0  0  0  0  0  0  0  0  0  0  0  0
   15.8590   -9.0953   17.3152 N   0  0  0  0  0  0  0  0  0  0  0  0
   14.9245   -9.2803   17.0665 H   0  0  0  0  0  0  0  0  0  0  0  0
   16.1187   -8.1703   18.4100 C   0  0  0  0  0  0  0  0  0  0  0  0
   14.8499   -7.5327   18.8652 C   0  0  0  0  0  0  0  0  0  0  0  0
   14.6608   -7.2330   20.2193 C   0  0  0  0  0  0  0  0  0  0  0  0
   13.4650   -6.6475   20.6463 C   0  0  0  0  0  0  0  0  0  0  0  0
   12.4566   -6.3627   19.7205 C   0  0  0  0  0  0  0  0  0  0  0  0
   10.9597   -5.6303   20.2553 Cl  0  0  0  0  0  0  0  0  0  0  0  0
   12.6430   -6.6640   18.3679 C   0  0  0  0  0  0  0  0  0  0  0  0
   13.8387   -7.2494   17.9406 C   0  0  0  0  0  0  0  0  0  0  0  0
  1  2  1  0  0  0
  2  3  1  0  0  0
  3  7  1  0  0  0
  3  4  2  0  0  0
  7  8  1  0  0  0
  8  9  2  0  0  0
  9 10  1  0  0  0
  9 11  1  0  0  0
 11 12  2  0  0  0
 12 13  1  0  0  0
 13 14  2  0  0  0
 14 15  1  0  0  0
 15 16  1  0  0  0
 15 17  2  0  0  0
 17 18  1  0  0  0
 18 19  1  0  0  0
 18 12  1  0  0  0
 19 20  2  0  0  0
 19  8  1  0  0  0
  4  5  1  0  0  0
  5  6  2  0  0  0
  6 21  1  0  0  0
  6  2  1  0  0  0
 21 22  1  0  0  0
 22 23  1  0  0  0
 23 24  2  0  0  0
 23 25  1  0  0  0
 25 27  1  0  0  0
 27 28  1  0  0  0
 28 29  2  0  0  0
 29 30  1  0  0  0
 30 31  2  0  0  0
 31 32  1  0  0  0
 31 33  1  0  0  0
 33 34  2  0  0  0
 34 28  1  0  0  0
 25 26  1  0  0  0
M  END
>  <minimizedAffinity>
-6.27344

>  <minimizedRMSD>
2.25734

$$$$
ChemDiv-C679-4361 MCULE-8858320110 MolPort-007-655-846 PubChem-20874244 ZINC000013368065 ZINC13368065


 27 29  0  0  0  0  0  0  0  0999 V2000
   17.3529   -9.6697   13.6817 O   0  0  0  0  0  0  0  0  0  0  0  0
   16.6071   -9.2827   17.2853 C   0  0  0  0  0  0  0  0  0  0  0  0
   16.6737   -9.0403   15.9047 C   0  0  0  0  0  0  0  0  0  0  0  0
   17.3079   -9.9476   15.0501 C   0  0  0  0  0  0  0  0  0  0  0  0
   17.8817  -11.1117   15.5850 C   0  0  0  0  0  0  0  0  0  0  0  0
   17.8183  -11.3597   16.9582 C   0  0  0  0  0  0  0  0  0  0  0  0
   17.1824  -10.4472   17.8041 C   0  0  0  0  0  0  0  0  0  0  0  0
   14.7671   -7.6189   17.9330 C   0  0  0  0  0  0  0  0  0  0  0  0
   14.1786   -7.6809   16.8214 O   0  0  0  0  0  0  0  0  0  0  0  0
   15.9614   -8.3721   18.1853 N   0  0  0  0  0  0  0  0  0  0  0  0
   16.3812   -8.2514   19.0676 H   0  0  0  0  0  0  0  0  0  0  0  0
   14.2184   -6.7303   18.9982 C   0  0  0  0  0  0  0  0  0  0  0  0
   12.2055   -8.0260   19.7060 C   0  0  0  0  0  0  0  0  0  0  0  0
   13.5838   -7.5424   20.1164 C   0  0  0  0  0  0  0  0  0  0  0  0
   18.0600  -10.4840   12.7556 C   0  0  0  0  0  0  0  0  0  0  0  0
   17.8619   -9.9600   11.3787 C   0  0  0  0  0  0  0  0  0  0  0  0
   16.6576  -10.2149   10.7019 C   0  0  0  0  0  0  0  0  0  0  0  0
   16.4837   -9.6883    9.4173 C   0  0  0  0  0  0  0  0  0  0  0  0
   15.4173   -9.9027    8.7822 O   0  0  0  0  0  0  0  0  0  0  0  0
   17.4825   -8.9441    8.8732 N   0  0  0  0  0  0  0  0  0  0  0  0
   17.4442   -8.3891    7.6643 N   0  0  0  0  0  0  0  0  0  0  0  0
   18.5756   -7.6967    7.3870 C   0  0  0  0  0  0  0  0  0  0  0  0
   19.6964   -7.7674    8.6601 S   0  0  0  0  0  0  0  0  0  0  0  0
   18.6266   -8.7088    9.5495 C   0  0  0  0  0  0  0  0  0  0  0  0
   18.8329   -9.2019   10.7950 N   0  0  0  0  0  0  0  0  0  0  0  0
   18.8167   -7.0112    6.0888 C   0  0  0  0  0  0  0  0  0  0  0  0
   19.5852   -7.9272    5.1578 C   0  0  0  0  0  0  0  0  0  0  0  0
 13 14  1  0  0  0
 14 12  1  0  0  0
 12  8  1  0  0  0
  8  9  2  0  0  0
  8 10  1  0  0  0
 10  2  1  0  0  0
  2  3  2  0  0  0
  3  4  1  0  0  0
  4  1  1  0  0  0
  4  5  2  0  0  0
  1 15  1  0  0  0
 15 16  1  0  0  0
 16 17  2  0  0  0
 17 18  1  0  0  0
 18 19  2  0  0  0
 18 20  1  0  0  0
 20 21  1  0  0  0
 21 22  2  0  0  0
 22 26  1  0  0  0
 22 23  1  0  0  0
 26 27  1  0  0  0
 23 24  1  0  0  0
 24 25  2  0  0  0
 24 20  1  0  0  0
 25 16  1  0  0  0
  5  6  1  0  0  0
  6  7  2  0  0  0
  7  2  1  0  0  0
 10 11  1  0  0  0
M  END
>  <minimizedAffinity>
-6.27158

>  <minimizedRMSD>
0.83208

$$$$
ChemDiv-C679-4188 MCULE-8377397103 MolPort-007-655-800 PubChem-20874218 ZINC000013367979 ZINC13367979


 29 31  0  0  0  0  0  0  0  0999 V2000
   16.5369   -8.9643   12.7640 O   0  0  0  0  0  0  0  0  0  0  0  0
   17.0828   -9.2234   16.4145 C   0  0  0  0  0  0  0  0  0  0  0  0
   16.5217   -8.8950   15.1710 C   0  0  0  0  0  0  0  0  0  0  0  0
   17.1275   -9.3117   13.9815 C   0  0  0  0  0  0  0  0  0  0  0  0
   18.3100  -10.0661   14.0384 C   0  0  0  0  0  0  0  0  0  0  0  0
   18.8744  -10.3962   15.2728 C   0  0  0  0  0  0  0  0  0  0  0  0
   18.2615   -9.9752   16.4560 C   0  0  0  0  0  0  0  0  0  0  0  0
   15.3443   -7.9566   17.8103 C   0  0  0  0  0  0  0  0  0  0  0  0
   14.7404   -7.4892   16.8060 O   0  0  0  0  0  0  0  0  0  0  0  0
   16.4847   -8.8098   17.6508 N   0  0  0  0  0  0  0  0  0  0  0  0
   16.9013   -9.1474   18.4765 H   0  0  0  0  0  0  0  0  0  0  0  0
   14.8796   -7.6392   19.2006 C   0  0  0  0  0  0  0  0  0  0  0  0
   13.3597   -7.6028   19.3393 C   0  0  0  0  0  0  0  0  0  0  0  0
   12.6619   -5.9240   21.0487 C   0  0  0  0  0  0  0  0  0  0  0  0
   12.8594   -6.1844   19.5674 C   0  0  0  0  0  0  0  0  0  0  0  0
   16.0512   -9.9317   11.8425 C   0  0  0  0  0  0  0  0  0  0  0  0
   16.6369   -9.6789   10.4998 C   0  0  0  0  0  0  0  0  0  0  0  0
   16.1039  -10.3263    9.3728 C   0  0  0  0  0  0  0  0  0  0  0  0
   16.6549  -10.0516    8.1162 C   0  0  0  0  0  0  0  0  0  0  0  0
   16.2020  -10.6185    7.0867 O   0  0  0  0  0  0  0  0  0  0  0  0
   17.6811   -9.1646    8.0304 N   0  0  0  0  0  0  0  0  0  0  0  0
   18.2904   -8.8150    6.9000 N   0  0  0  0  0  0  0  0  0  0  0  0
   19.2774   -7.9081    7.1122 C   0  0  0  0  0  0  0  0  0  0  0  0
   19.4252   -7.5023    8.7533 S   0  0  0  0  0  0  0  0  0  0  0  0
   18.1683   -8.5509    9.1291 C   0  0  0  0  0  0  0  0  0  0  0  0
   17.6614   -8.7900   10.3631 N   0  0  0  0  0  0  0  0  0  0  0  0
   20.1290   -7.3353    6.0295 C   0  0  0  0  0  0  0  0  0  0  0  0
   20.2735   -8.3260    4.8910 C   0  0  0  0  0  0  0  0  0  0  0  0
   19.5285   -6.0423    5.5134 C   0  0  0  0  0  0  0  0  0  0  0  0
 14 15  1  0  0  0
 15 13  1  0  0  0
 13 12  1  0  0  0
 12  8  1  0  0  0
  8  9  2  0  0  0
  8 10  1  0  0  0
 10  2  1  0  0  0
  2  3  2  0  0  0
  3  4  1  0  0  0
  4  1  1  0  0  0
  1 16  1  0  0  0
 16 17  1  0  0  0
 17 18  2  0  0  0
 18 19  1  0  0  0
 19 20  2  0  0  0
 19 21  1  0  0  0
 21 22  1  0  0  0
 22 23  2  0  0  0
 23 24  1  0  0  0
 24 25  1  0  0  0
 25 26  2  0  0  0
 23 27  1  0  0  0
 27 28  1  0  0  0
 27 29  1  0  0  0
  4  5  2  0  0  0
  5  6  1  0  0  0
  6  7  2  0  0  0
  7  2  1  0  0  0
 26 17  1  0  0  0
 25 21  1  0  0  0
 10 11  1  0  0  0
M  END
>  <minimizedAffinity>
-6.25626

>  <minimizedRMSD>
1.63280

$$$$
ChemDiv-C679-4012 MolPort-007-655-742 PubChem-46258301 ZINC000020859128


 33 38  0  0  0  0  0  0  0  0999 V2000
   17.2984   -9.9576   15.1564 C   0  0  0  0  0  0  0  0  0  0  0  0
   18.0972  -10.9639   15.7218 C   0  0  0  0  0  0  0  0  0  0  0  0
   18.0552  -11.2049   17.0970 C   0  0  0  0  0  0  0  0  0  0  0  0
   17.2165  -10.4429   17.9144 C   0  0  0  0  0  0  0  0  0  0  0  0
   16.4160   -9.4361   17.3650 C   0  0  0  0  0  0  0  0  0  0  0  0
   16.4621   -9.2002   15.9826 C   0  0  0  0  0  0  0  0  0  0  0  0
   15.5661   -8.6784   18.2366 N   0  0  0  0  0  0  0  0  0  0  0  0
   14.5308   -7.7614   17.8482 C   0  0  0  0  0  0  0  0  0  0  0  0
   14.3333   -7.4987   16.6298 O   0  0  0  0  0  0  0  0  0  0  0  0
   15.7070   -8.7994   19.2034 H   0  0  0  0  0  0  0  0  0  0  0  0
   13.7368   -7.0491   18.9103 C   0  0  0  0  0  0  0  0  0  0  0  0
   14.6900   -6.5982   20.0324 C   0  0  0  0  0  0  0  0  0  0  0  0
   13.9059   -5.8789   21.1413 C   0  0  0  0  0  0  0  0  0  0  0  0
   12.8525   -6.8374   21.7195 C   0  0  0  0  0  0  0  0  0  0  0  0
   11.8826   -7.2816   20.6129 C   0  0  0  0  0  0  0  0  0  0  0  0
   11.1866   -6.0452   20.0227 C   0  0  0  0  0  0  0  0  0  0  0  0
   12.2326   -5.0847   19.4356 C   0  0  0  0  0  0  0  0  0  0  0  0
   13.2011   -4.6493   20.5467 C   0  0  0  0  0  0  0  0  0  0  0  0
   13.0204   -5.8088   18.3325 C   0  0  0  0  0  0  0  0  0  0  0  0
   12.6721   -7.9946   19.5038 C   0  0  0  0  0  0  0  0  0  0  0  0
   17.3159   -9.6908   13.7851 O   0  0  0  0  0  0  0  0  0  0  0  0
   17.9854  -10.5253   12.8491 C   0  0  0  0  0  0  0  0  0  0  0  0
   18.7336   -6.9548    6.2360 C   0  0  0  0  0  0  0  0  0  0  0  0
   18.5088   -7.6893    7.5081 C   0  0  0  0  0  0  0  0  0  0  0  0
   17.3786   -8.3868    7.7747 N   0  0  0  0  0  0  0  0  0  0  0  0
   17.4161   -8.9553    8.9775 N   0  0  0  0  0  0  0  0  0  0  0  0
   18.5550   -8.7176    9.6617 C   0  0  0  0  0  0  0  0  0  0  0  0
   19.6199   -7.7556    8.7885 S   0  0  0  0  0  0  0  0  0  0  0  0
   18.7582   -9.2196   10.9042 N   0  0  0  0  0  0  0  0  0  0  0  0
   17.7902   -9.9906   11.4759 C   0  0  0  0  0  0  0  0  0  0  0  0
   16.5910  -10.2478   10.7908 C   0  0  0  0  0  0  0  0  0  0  0  0
   16.4197   -9.7108    9.5102 C   0  0  0  0  0  0  0  0  0  0  0  0
   15.3575   -9.9262    8.8682 O   0  0  0  0  0  0  0  0  0  0  0  0
 23 24  1  0  0  0
 24 25  2  0  0  0
 25 26  1  0  0  0
 26 27  1  0  0  0
 27 28  1  0  0  0
 27 29  2  0  0  0
 29 30  1  0  0  0
 30 22  1  0  0  0
 22 21  1  0  0  0
 21  1  1  0  0  0
  1  2  2  0  0  0
  2  3  1  0  0  0
  3  4  2  0  0  0
  4  5  1  0  0  0
  5  7  1  0  0  0
  7  8  1  0  0  0
  8  9  2  0  0  0
  8 11  1  0  0  0
 11 12  1  0  0  0
 12 13  1  0  0  0
 13 14  1  0  0  0
 14 15  1  0  0  0
 15 16  1  0  0  0
 16 17  1  0  0  0
 17 18  1  0  0  0
 17 19  1  0  0  0
 15 20  1  0  0  0
  5  6  2  0  0  0
 30 31  2  0  0  0
 31 32  1  0  0  0
 32 33  2  0  0  0
 28 24  1  0  0  0
  6  1  1  0  0  0
 32 26  1  0  0  0
 19 11  1  0  0  0
 20 11  1  0  0  0
 18 13  1  0  0  0
  7 10  1  0  0  0
M  END
>  <minimizedAffinity>
-6.24571

>  <minimizedRMSD>
1.02054

$$$$
ChemDiv-D483-1712 MCULE-6493939814 MolPort-007-710-982 PubChem-20899108 ZINC000015859274 ZINC15859274


 32 35  0  0  0  0  0  0  0  0999 V2000
   15.7088   -8.7306   13.5422 C   0  0  0  0  0  0  0  0  0  0  0  0
   16.9232   -9.5110   13.7194 N   0  0  0  0  0  0  0  0  0  0  0  0
   17.3926  -10.5098   12.9518 C   0  0  0  0  0  0  0  0  0  0  0  0
   18.5638  -10.9804   13.4240 N   0  0  0  0  0  0  0  0  0  0  0  0
   18.8541  -10.2761   14.5101 N   0  0  0  0  0  0  0  0  0  0  0  0
   17.8554   -9.3882   14.6786 C   0  0  0  0  0  0  0  0  0  0  0  0
   16.7062  -11.0462   11.7361 C   0  0  0  0  0  0  0  0  0  0  0  0
   16.9209  -10.1359   10.5595 C   0  0  0  0  0  0  0  0  0  0  0  0
   15.8876   -9.8718    9.6482 C   0  0  0  0  0  0  0  0  0  0  0  0
   14.5244  -10.4505    9.8266 C   0  0  0  0  0  0  0  0  0  0  0  0
   16.1192   -9.0669    8.5821 N   0  0  0  0  0  0  0  0  0  0  0  0
   17.3353   -8.5041    8.3705 C   0  0  0  0  0  0  0  0  0  0  0  0
   17.5231   -7.6824    7.2561 C   0  0  0  0  0  0  0  0  0  0  0  0
   18.7698   -7.1008    7.0350 C   0  0  0  0  0  0  0  0  0  0  0  0
   19.8147   -7.3434    7.9241 C   0  0  0  0  0  0  0  0  0  0  0  0
   19.5948   -8.1689    9.0282 C   0  0  0  0  0  0  0  0  0  0  0  0
   18.3711   -8.7393    9.2455 N   0  0  0  0  0  0  0  0  0  0  0  0
   18.1766   -9.5468   10.3344 C   0  0  0  0  0  0  0  0  0  0  0  0
   19.1223   -9.7669   11.1437 O   0  0  0  0  0  0  0  0  0  0  0  0
   17.7944   -8.2005   16.0201 S   0  0  0  0  0  0  0  0  0  0  0  0
   16.5067   -9.1229   16.9183 C   0  0  0  0  0  0  0  0  0  0  0  0
   15.6050   -8.1903   17.6518 C   0  0  0  0  0  0  0  0  0  0  0  0
   14.8754   -7.4002   16.9966 O   0  0  0  0  0  0  0  0  0  0  0  0
   15.5763   -8.2137   19.0854 N   0  0  0  0  0  0  0  0  0  0  0  0
   16.1669   -8.8650   19.5284 H   0  0  0  0  0  0  0  0  0  0  0  0
   14.7757   -7.3858   19.9402 C   0  0  0  0  0  0  0  0  0  0  0  0
   15.3244   -6.9341   21.1458 C   0  0  0  0  0  0  0  0  0  0  0  0
   14.5741   -6.1256   22.0057 C   0  0  0  0  0  0  0  0  0  0  0  0
   13.2677   -5.7642   21.6635 C   0  0  0  0  0  0  0  0  0  0  0  0
   12.4693   -4.9072   22.5782 C   0  0  0  0  0  0  0  0  0  0  0  0
   12.7124   -6.2096   20.4611 C   0  0  0  0  0  0  0  0  0  0  0  0
   13.4640   -7.0170   19.6019 C   0  0  0  0  0  0  0  0  0  0  0  0
  1  2  1  0  0  0
  2  3  1  0  0  0
  3  7  1  0  0  0
  3  4  2  0  0  0
  7  8  1  0  0  0
  8  9  2  0  0  0
  9 10  1  0  0  0
  9 11  1  0  0  0
 11 12  2  0  0  0
 12 13  1  0  0  0
 13 14  2  0  0  0
 14 15  1  0  0  0
 15 16  2  0  0  0
 16 17  1  0  0  0
 17 18  1  0  0  0
 17 12  1  0  0  0
 18 19  2  0  0  0
 18  8  1  0  0  0
  4  5  1  0  0  0
  5  6  2  0  0  0
  6 20  1  0  0  0
  6  2  1  0  0  0
 20 21  1  0  0  0
 21 22  1  0  0  0
 22 23  2  0  0  0
 22 24  1  0  0  0
 24 26  1  0  0  0
 26 27  2  0  0  0
 27 28  1  0  0  0
 28 29  2  0  0  0
 29 30  1  0  0  0
 29 31  1  0  0  0
 31 32  2  0  0  0
 32 26  1  0  0  0
 24 25  1  0  0  0
M  END
>  <minimizedAffinity>
-6.22666

>  <minimizedRMSD>
2.94179

$$$$
ChemDiv-D483-1611 MCULE-2149051429 MolPort-007-710-961 PubChem-20899090 ZINC000015859255


 34 37  0  0  0  0  0  0  0  0999 V2000
   16.2358   -9.7393   13.7869 C   0  0  0  0  0  0  0  0  0  0  0  0
   15.8096   -8.4673   13.6560 N   0  0  0  0  0  0  0  0  0  0  0  0
   15.9408   -7.8915   14.8440 N   0  0  0  0  0  0  0  0  0  0  0  0
   16.4475   -8.8223   15.6752 C   0  0  0  0  0  0  0  0  0  0  0  0
   16.6434   -9.9908   15.0424 N   0  0  0  0  0  0  0  0  0  0  0  0
   17.1653  -11.2328   15.5902 C   0  0  0  0  0  0  0  0  0  0  0  0
   16.2805  -10.7238   12.6625 C   0  0  0  0  0  0  0  0  0  0  0  0
   18.4441   -8.9236   10.1358 N   0  0  0  0  0  0  0  0  0  0  0  0
   19.7150   -8.4300   10.0398 C   0  0  0  0  0  0  0  0  0  0  0  0
   20.1499   -7.7870    8.8814 C   0  0  0  0  0  0  0  0  0  0  0  0
   19.2734   -7.6479    7.8092 C   0  0  0  0  0  0  0  0  0  0  0  0
   17.9765   -8.1487    7.9002 C   0  0  0  0  0  0  0  0  0  0  0  0
   17.0550   -7.9881    6.7389 C   0  0  0  0  0  0  0  0  0  0  0  0
   17.5676   -8.7918    9.0814 C   0  0  0  0  0  0  0  0  0  0  0  0
   16.3051   -9.2847    9.1826 N   0  0  0  0  0  0  0  0  0  0  0  0
   15.8729   -9.9094   10.3048 C   0  0  0  0  0  0  0  0  0  0  0  0
   14.4749  -10.4284   10.3438 C   0  0  0  0  0  0  0  0  0  0  0  0
   16.7403  -10.0597   11.3956 C   0  0  0  0  0  0  0  0  0  0  0  0
   18.0442   -9.5502   11.2864 C   0  0  0  0  0  0  0  0  0  0  0  0
   18.8453   -9.6763   12.2558 O   0  0  0  0  0  0  0  0  0  0  0  0
   16.8091   -8.5228   17.4026 S   0  0  0  0  0  0  0  0  0  0  0  0
   15.0994   -7.9916   17.7418 C   0  0  0  0  0  0  0  0  0  0  0  0
   14.9127   -7.4849   19.1377 C   0  0  0  0  0  0  0  0  0  0  0  0
   15.9331   -7.2882   19.8496 O   0  0  0  0  0  0  0  0  0  0  0  0
   13.6026   -7.2668   19.6779 N   0  0  0  0  0  0  0  0  0  0  0  0
   12.8353   -7.6047   19.1618 H   0  0  0  0  0  0  0  0  0  0  0  0
   13.3261   -6.5938   20.9129 C   0  0  0  0  0  0  0  0  0  0  0  0
   14.1592   -6.8557   22.0052 C   0  0  0  0  0  0  0  0  0  0  0  0
   13.9324   -6.2396   23.2360 C   0  0  0  0  0  0  0  0  0  0  0  0
   12.8591   -5.3626   23.3887 C   0  0  0  0  0  0  0  0  0  0  0  0
   11.9998   -5.1058   22.3176 C   0  0  0  0  0  0  0  0  0  0  0  0
   10.6471   -4.0136   22.5793 Cl  0  0  0  0  0  0  0  0  0  0  0  0
   12.2175   -5.7295   21.0733 C   0  0  0  0  0  0  0  0  0  0  0  0
   11.2334   -5.5295   19.9650 C   0  0  0  0  0  0  0  0  0  0  0  0
  8  9  1  0  0  0
  9 10  2  0  0  0
 10 11  1  0  0  0
 11 12  2  0  0  0
 12 13  1  0  0  0
 12 14  1  0  0  0
 14 15  2  0  0  0
 15 16  1  0  0  0
 16 17  1  0  0  0
 16 18  2  0  0  0
 18  7  1  0  0  0
  7  1  1  0  0  0
  1  2  2  0  0  0
  2  3  1  0  0  0
  3  4  2  0  0  0
  4 21  1  0  0  0
 21 22  1  0  0  0
 22 23  1  0  0  0
 23 24  2  0  0  0
 23 25  1  0  0  0
 25 27  1  0  0  0
 27 28  2  0  0  0
 28 29  1  0  0  0
 29 30  2  0  0  0
 30 31  1  0  0  0
 31 32  1  0  0  0
 31 33  2  0  0  0
 33 34  1  0  0  0
  4  5  1  0  0  0
  5  6  1  0  0  0
 18 19  1  0  0  0
 19 20  2  0  0  0
 14  8  1  0  0  0
  5  1  1  0  0  0
 19  8  1  0  0  0
 33 27  1  0  0  0
 25 26  1  0  0  0
M  END
>  <minimizedAffinity>
-6.22518

>  <minimizedRMSD>
2.74837

$$$$
ChemDiv-C679-6507 MCULE-1179181351 MolPort-007-656-257 PubChem-20874395 ZINC000013368531


 27 29  0  0  0  0  0  0  0  0999 V2000
   17.9706  -10.5477   12.7941 C   0  0  0  0  0  0  0  0  0  0  0  0
   17.4861   -8.9333    8.9300 N   0  0  0  0  0  0  0  0  0  0  0  0
   17.4730   -8.3498    7.7340 N   0  0  0  0  0  0  0  0  0  0  0  0
   18.6144   -7.6606    7.4929 C   0  0  0  0  0  0  0  0  0  0  0  0
   19.6984   -7.7436    8.7965 S   0  0  0  0  0  0  0  0  0  0  0  0
   18.6138   -8.7122    9.6370 C   0  0  0  0  0  0  0  0  0  0  0  0
   18.7908   -9.2277   10.8779 N   0  0  0  0  0  0  0  0  0  0  0  0
   17.8080  -10.0008   11.4214 C   0  0  0  0  0  0  0  0  0  0  0  0
   16.6189  -10.2401   10.7127 C   0  0  0  0  0  0  0  0  0  0  0  0
   16.4743   -9.6870    9.4359 C   0  0  0  0  0  0  0  0  0  0  0  0
   15.4219   -9.8861    8.7733 O   0  0  0  0  0  0  0  0  0  0  0  0
   18.8535   -6.8829    6.2439 C   0  0  0  0  0  0  0  0  0  0  0  0
   19.9765   -7.5007    5.4275 C   0  0  0  0  0  0  0  0  0  0  0  0
   19.4151   -8.3972    4.3412 C   0  0  0  0  0  0  0  0  0  0  0  0
   17.3410   -9.6817   13.7288 O   0  0  0  0  0  0  0  0  0  0  0  0
   17.3002   -9.9510   15.0989 C   0  0  0  0  0  0  0  0  0  0  0  0
   17.8844  -11.1071   15.6411 C   0  0  0  0  0  0  0  0  0  0  0  0
   17.8213  -11.3482   17.0154 C   0  0  0  0  0  0  0  0  0  0  0  0
   17.1755  -10.4375   17.8550 C   0  0  0  0  0  0  0  0  0  0  0  0
   16.5901   -9.2810   17.3287 C   0  0  0  0  0  0  0  0  0  0  0  0
   16.6565   -9.0451   15.9473 C   0  0  0  0  0  0  0  0  0  0  0  0
   15.9389   -8.3688   18.2234 N   0  0  0  0  0  0  0  0  0  0  0  0
   14.7438   -7.6207   17.9647 C   0  0  0  0  0  0  0  0  0  0  0  0
   14.1427   -7.7090   16.8615 O   0  0  0  0  0  0  0  0  0  0  0  0
   16.3557   -8.2434   19.1064 H   0  0  0  0  0  0  0  0  0  0  0  0
   14.2197   -6.7009   19.0097 C   0  0  0  0  0  0  0  0  0  0  0  0
   13.9011   -7.4817   20.2687 C   0  0  0  0  0  0  0  0  0  0  0  0
  2  3  1  0  0  0
  3  4  2  0  0  0
  4  5  1  0  0  0
  5  6  1  0  0  0
  6  7  2  0  0  0
  7  8  1  0  0  0
  8  1  1  0  0  0
  1 15  1  0  0  0
 15 16  1  0  0  0
 16 17  2  0  0  0
 17 18  1  0  0  0
 18 19  2  0  0  0
 19 20  1  0  0  0
 20 21  2  0  0  0
 20 22  1  0  0  0
 22 23  1  0  0  0
 23 26  1  0  0  0
 26 27  1  0  0  0
 23 24  2  0  0  0
  8  9  2  0  0  0
  9 10  1  0  0  0
 10 11  2  0  0  0
  4 12  1  0  0  0
 12 13  1  0  0  0
 13 14  1  0  0  0
  6  2  1  0  0  0
 21 16  1  0  0  0
 10  2  1  0  0  0
 22 25  1  0  0  0
M  END
>  <minimizedAffinity>
-6.21469

>  <minimizedRMSD>
1.46529

$$$$
ChemDiv-G357-2254 MCULE-1772492088 MolPort-007-847-796 PubChem-20953130 ZINC000015772083 ZINC15772083


 33 36  0  0  0  0  0  0  0  0999 V2000
   17.5459  -10.6586   13.1951 C   0  0  0  0  0  0  0  0  0  0  0  0
   17.5071  -10.1452   11.8003 C   0  0  0  0  0  0  0  0  0  0  0  0
   16.3805  -10.3898   10.9978 C   0  0  0  0  0  0  0  0  0  0  0  0
   16.3553   -9.8719    9.6983 C   0  0  0  0  0  0  0  0  0  0  0  0
   15.3613  -10.0764    8.9522 O   0  0  0  0  0  0  0  0  0  0  0  0
   17.4182   -9.1462    9.2614 N   0  0  0  0  0  0  0  0  0  0  0  0
   17.5179   -8.5971    8.0533 N   0  0  0  0  0  0  0  0  0  0  0  0
   18.6862   -7.9262    7.8937 C   0  0  0  0  0  0  0  0  0  0  0  0
   19.6541   -7.9936    9.2857 S   0  0  0  0  0  0  0  0  0  0  0  0
   18.4845   -8.9199   10.0569 C   0  0  0  0  0  0  0  0  0  0  0  0
   18.5461   -9.4038   11.3215 N   0  0  0  0  0  0  0  0  0  0  0  0
   19.0655   -7.2051    6.6443 C   0  0  0  0  0  0  0  0  0  0  0  0
   18.2321   -7.7058    5.4533 C   0  0  0  0  0  0  0  0  0  0  0  0
   18.9958   -8.7379    4.6265 C   0  0  0  0  0  0  0  0  0  0  0  0
   20.2928   -8.1488    4.0556 C   0  0  0  0  0  0  0  0  0  0  0  0
   20.9283   -7.0746    4.9498 C   0  0  0  0  0  0  0  0  0  0  0  0
   20.5818   -7.2940    6.4190 C   0  0  0  0  0  0  0  0  0  0  0  0
   17.6959   -9.5724   14.0973 O   0  0  0  0  0  0  0  0  0  0  0  0
   17.6606   -9.7515   15.4820 C   0  0  0  0  0  0  0  0  0  0  0  0
   18.4716  -10.5399   16.0422 O   0  0  0  0  0  0  0  0  0  0  0  0
   14.7783   -7.6066   17.8182 C   0  0  0  0  0  0  0  0  0  0  0  0
   14.7058   -7.5991   16.4174 C   0  0  0  0  0  0  0  0  0  0  0  0
   15.6466   -8.2989   15.6572 C   0  0  0  0  0  0  0  0  0  0  0  0
   16.6721   -9.0159   16.2868 C   0  0  0  0  0  0  0  0  0  0  0  0
   16.7439   -9.0239   17.6867 C   0  0  0  0  0  0  0  0  0  0  0  0
   15.8020   -8.3235   18.4459 C   0  0  0  0  0  0  0  0  0  0  0  0
   12.4519   -7.2451   18.8351 C   0  0  0  0  0  0  0  0  0  0  0  0
   11.9330   -8.2329   18.2511 O   0  0  0  0  0  0  0  0  0  0  0  0
   13.8301   -6.9029   18.6317 N   0  0  0  0  0  0  0  0  0  0  0  0
   14.1591   -6.1015   19.0993 H   0  0  0  0  0  0  0  0  0  0  0  0
   11.6046   -6.4067   19.7329 C   0  0  0  0  0  0  0  0  0  0  0  0
   12.4157   -4.3539   20.8998 C   0  0  0  0  0  0  0  0  0  0  0  0
   12.4084   -5.8708   20.9071 C   0  0  0  0  0  0  0  0  0  0  0  0
 32 33  1  0  0  0
 33 31  1  0  0  0
 31 27  1  0  0  0
 27 28  2  0  0  0
 27 29  1  0  0  0
 29 21  1  0  0  0
 21 22  2  0  0  0
 22 23  1  0  0  0
 23 24  2  0  0  0
 24 25  1  0  0  0
 24 19  1  0  0  0
 25 26  2  0  0  0
 26 21  1  0  0  0
 19 20  2  0  0  0
 19 18  1  0  0  0
 18  1  1  0  0  0
  1  2  1  0  0  0
  2  3  2  0  0  0
  3  4  1  0  0  0
  4  5  2  0  0  0
  4  6  1  0  0  0
  6  7  1  0  0  0
  7  8  2  0  0  0
  8  9  1  0  0  0
  8 12  1  0  0  0
  9 10  1  0  0  0
 10 11  2  0  0  0
 10  6  1  0  0  0
 11  2  1  0  0  0
 12 13  1  0  0  0
 13 14  1  0  0  0
 14 15  1  0  0  0
 15 16  1  0  0  0
 16 17  1  0  0  0
 17 12  1  0  0  0
 29 30  1  0  0  0
M  END
>  <minimizedAffinity>
-6.21174

>  <minimizedRMSD>
2.69616

$$$$
ChemDiv-G357-1011 MCULE-1096644372 MolPort-007-847-393 PubChem-20953069 ZINC000015771880 ZINC15771880


 32 34  0  0  0  0  0  0  0  0999 V2000
   17.2029   -9.8019   15.5331 C   0  0  0  0  0  0  0  0  0  0  0  0
   18.0395  -10.6041   16.0330 O   0  0  0  0  0  0  0  0  0  0  0  0
   14.6361   -7.5012   18.0793 C   0  0  0  0  0  0  0  0  0  0  0  0
   14.3618   -7.6144   16.7084 C   0  0  0  0  0  0  0  0  0  0  0  0
   15.2000   -8.3649   15.8796 C   0  0  0  0  0  0  0  0  0  0  0  0
   16.3231   -9.0127   16.4100 C   0  0  0  0  0  0  0  0  0  0  0  0
   16.5963   -8.9001   17.7803 C   0  0  0  0  0  0  0  0  0  0  0  0
   15.7571   -8.1490   18.6081 C   0  0  0  0  0  0  0  0  0  0  0  0
   12.6330   -7.2108   19.6544 C   0  0  0  0  0  0  0  0  0  0  0  0
   12.2159   -8.3895   19.5044 O   0  0  0  0  0  0  0  0  0  0  0  0
   13.7983   -6.7422   18.9614 N   0  0  0  0  0  0  0  0  0  0  0  0
   14.0490   -5.8013   19.1066 H   0  0  0  0  0  0  0  0  0  0  0  0
   11.8813   -6.2842   20.5502 C   0  0  0  0  0  0  0  0  0  0  0  0
   12.7105   -5.8991   21.7693 C   0  0  0  0  0  0  0  0  0  0  0  0
   11.4689   -4.1624   23.0621 C   0  0  0  0  0  0  0  0  0  0  0  0
   12.5958   -4.4139   22.0782 C   0  0  0  0  0  0  0  0  0  0  0  0
   17.1070   -9.6584   14.1471 O   0  0  0  0  0  0  0  0  0  0  0  0
   17.6933  -10.5925   13.2526 C   0  0  0  0  0  0  0  0  0  0  0  0
   17.5698  -10.0913   11.8585 C   0  0  0  0  0  0  0  0  0  0  0  0
   16.4258  -10.4009   11.1045 C   0  0  0  0  0  0  0  0  0  0  0  0
   16.3199   -9.8943    9.8045 C   0  0  0  0  0  0  0  0  0  0  0  0
   15.3090  -10.1577    9.1007 O   0  0  0  0  0  0  0  0  0  0  0  0
   17.3233   -9.1157    9.3207 N   0  0  0  0  0  0  0  0  0  0  0  0
   17.3461   -8.5744    8.1052 N   0  0  0  0  0  0  0  0  0  0  0  0
   18.4672   -7.8431    7.8954 C   0  0  0  0  0  0  0  0  0  0  0  0
   19.4977   -7.8519    9.2449 S   0  0  0  0  0  0  0  0  0  0  0  0
   18.4081   -8.8278   10.0704 C   0  0  0  0  0  0  0  0  0  0  0  0
   18.5475   -9.2997   11.3333 N   0  0  0  0  0  0  0  0  0  0  0  0
   18.7637   -7.1539    6.6073 C   0  0  0  0  0  0  0  0  0  0  0  0
   20.1158   -7.5798    6.0499 C   0  0  0  0  0  0  0  0  0  0  0  0
   20.2215   -7.2847    4.5619 C   0  0  0  0  0  0  0  0  0  0  0  0
   19.7390   -8.4710    3.7495 C   0  0  0  0  0  0  0  0  0  0  0  0
 15 16  1  0  0  0
 16 14  1  0  0  0
 14 13  1  0  0  0
 13  9  1  0  0  0
  9 10  2  0  0  0
  9 11  1  0  0  0
 11  3  1  0  0  0
  3  4  2  0  0  0
  4  5  1  0  0  0
  5  6  2  0  0  0
  6  7  1  0  0  0
  6  1  1  0  0  0
  7  8  2  0  0  0
  8  3  1  0  0  0
  1  2  2  0  0  0
  1 17  1  0  0  0
 17 18  1  0  0  0
 18 19  1  0  0  0
 19 20  2  0  0  0
 20 21  1  0  0  0
 21 22  2  0  0  0
 21 23  1  0  0  0
 23 24  1  0  0  0
 24 25  2  0  0  0
 25 29  1  0  0  0
 25 26  1  0  0  0
 29 30  1  0  0  0
 30 31  1  0  0  0
 31 32  1  0  0  0
 26 27  1  0  0  0
 27 28  2  0  0  0
 27 23  1  0  0  0
 28 19  1  0  0  0
 11 12  1  0  0  0
M  END
>  <minimizedAffinity>
-6.20627

>  <minimizedRMSD>
2.69588

$$$$
ChemDiv-D439-4151 MCULE-3732323552 MolPort-007-706-781 PubChem-46268363 ZINC000021797141 ZINC21797141


 36 39  0  0  0  0  0  0  0  0999 V2000
   16.7799   -9.5269   16.8284 C   0  0  0  0  0  0  0  0  0  0  0  0
   17.3649  -10.7462   17.1739 C   0  0  0  0  0  0  0  0  0  0  0  0
   17.9246  -11.5631   16.1907 C   0  0  0  0  0  0  0  0  0  0  0  0
   17.9138  -11.1720   14.8481 C   0  0  0  0  0  0  0  0  0  0  0  0
   18.4989  -12.1208   13.8603 C   0  0  0  0  0  0  0  0  0  0  0  0
   17.3289   -9.9306   14.4835 C   0  0  0  0  0  0  0  0  0  0  0  0
   16.7655   -9.1310   15.4844 C   0  0  0  0  0  0  0  0  0  0  0  0
   15.1341   -7.7795   17.7247 C   0  0  0  0  0  0  0  0  0  0  0  0
   14.5672   -7.5958   16.6153 O   0  0  0  0  0  0  0  0  0  0  0  0
   16.2118   -8.7144   17.8647 N   0  0  0  0  0  0  0  0  0  0  0  0
   16.6017   -8.8083   18.7638 H   0  0  0  0  0  0  0  0  0  0  0  0
   14.6618   -7.0250   18.9191 C   0  0  0  0  0  0  0  0  0  0  0  0
   13.6959   -7.7872   19.6365 O   0  0  0  0  0  0  0  0  0  0  0  0
    9.9525   -8.9229   18.0764 C   0  0  0  0  0  0  0  0  0  0  0  0
   10.5478   -7.7297   17.6552 C   0  0  0  0  0  0  0  0  0  0  0  0
   11.7891   -7.3417   18.1668 C   0  0  0  0  0  0  0  0  0  0  0  0
   12.4520   -8.1478   19.1059 C   0  0  0  0  0  0  0  0  0  0  0  0
   11.8574   -9.3412   19.5266 C   0  0  0  0  0  0  0  0  0  0  0  0
   10.6150   -9.7284   19.0168 C   0  0  0  0  0  0  0  0  0  0  0  0
    8.3131  -10.6348   17.3670 C   0  0  0  0  0  0  0  0  0  0  0  0
    8.7092   -9.2822   17.5483 O   0  0  0  0  0  0  0  0  0  0  0  0
   17.2598   -9.4402   13.1706 O   0  0  0  0  0  0  0  0  0  0  0  0
   16.4872  -10.0087   12.1227 C   0  0  0  0  0  0  0  0  0  0  0  0
   17.0608   -9.6119   10.8099 C   0  0  0  0  0  0  0  0  0  0  0  0
   16.4805  -10.1000    9.6210 C   0  0  0  0  0  0  0  0  0  0  0  0
   17.0247   -9.7010    8.3938 C   0  0  0  0  0  0  0  0  0  0  0  0
   16.5358  -10.1182    7.3105 O   0  0  0  0  0  0  0  0  0  0  0  0
   18.0884   -8.8538    8.4160 N   0  0  0  0  0  0  0  0  0  0  0  0
   18.7755   -8.3189    7.4237 N   0  0  0  0  0  0  0  0  0  0  0  0
   19.7291   -7.5345    7.9851 C   0  0  0  0  0  0  0  0  0  0  0  0
   19.6586   -7.5655    9.3446 N   0  0  0  0  0  0  0  0  0  0  0  0
   18.6218   -8.4000    9.5523 C   0  0  0  0  0  0  0  0  0  0  0  0
   18.1289   -8.7611   10.7625 N   0  0  0  0  0  0  0  0  0  0  0  0
   18.5262   -8.5169    5.9980 C   0  0  0  0  0  0  0  0  0  0  0  0
   17.4805   -7.5358    5.5007 C   0  0  0  0  0  0  0  0  0  0  0  0
   19.8093   -8.3592    5.2048 C   0  0  0  0  0  0  0  0  0  0  0  0
 20 21  1  0  0  0
 21 14  1  0  0  0
 14 15  2  0  0  0
 15 16  1  0  0  0
 16 17  2  0  0  0
 17 13  1  0  0  0
 17 18  1  0  0  0
 13 12  1  0  0  0
 12  8  1  0  0  0
  8  9  2  0  0  0
  8 10  1  0  0  0
 10  1  1  0  0  0
  1  2  2  0  0  0
  2  3  1  0  0  0
  3  4  2  0  0  0
  4  5  1  0  0  0
  4  6  1  0  0  0
  6 22  1  0  0  0
  6  7  2  0  0  0
 22 23  1  0  0  0
 23 24  1  0  0  0
 24 25  2  0  0  0
 25 26  1  0  0  0
 26 27  2  0  0  0
 26 28  1  0  0  0
 28 29  1  0  0  0
 29 30  1  0  0  0
 29 34  1  0  0  0
 30 31  2  0  0  0
 31 32  1  0  0  0
 32 33  2  0  0  0
 32 28  1  0  0  0
 33 24  1  0  0  0
 34 35  1  0  0  0
 34 36  1  0  0  0
  7  1  1  0  0  0
 18 19  2  0  0  0
 19 14  1  0  0  0
 10 11  1  0  0  0
M  END
>  <minimizedAffinity>
-6.20519

>  <minimizedRMSD>
1.88853

$$$$
ChemDiv-G357-3005 MCULE-1044467193 MolPort-007-847-891 PubChem-20953166 ZINC000015772164 ZINC15772164


 29 31  0  0  0  0  0  0  0  0999 V2000
   17.3112  -10.5333   14.8747 C   0  0  0  0  0  0  0  0  0  0  0  0
   17.9787  -11.5175   15.2995 O   0  0  0  0  0  0  0  0  0  0  0  0
   16.6149   -9.6496   15.8241 C   0  0  0  0  0  0  0  0  0  0  0  0
   15.8277   -8.5910   15.3521 C   0  0  0  0  0  0  0  0  0  0  0  0
   15.1575   -7.7534   16.2497 C   0  0  0  0  0  0  0  0  0  0  0  0
   15.2649   -7.9661   17.6320 C   0  0  0  0  0  0  0  0  0  0  0  0
   16.0553   -9.0215   18.1025 C   0  0  0  0  0  0  0  0  0  0  0  0
   16.7257   -9.8588   17.2056 C   0  0  0  0  0  0  0  0  0  0  0  0
   14.5932   -7.1306   18.5838 N   0  0  0  0  0  0  0  0  0  0  0  0
   13.1759   -6.9128   18.6913 C   0  0  0  0  0  0  0  0  0  0  0  0
   12.3748   -7.5368   17.9413 O   0  0  0  0  0  0  0  0  0  0  0  0
   15.1621   -6.6560   19.2322 H   0  0  0  0  0  0  0  0  0  0  0  0
   12.6408   -6.0103   19.7728 C   0  0  0  0  0  0  0  0  0  0  0  0
   11.3194   -6.5601   20.2723 C   0  0  0  0  0  0  0  0  0  0  0  0
   13.6114   -5.9338   20.9385 C   0  0  0  0  0  0  0  0  0  0  0  0
   12.4185   -4.6012   19.2491 C   0  0  0  0  0  0  0  0  0  0  0  0
   17.2292  -10.2774   13.5042 O   0  0  0  0  0  0  0  0  0  0  0  0
   18.3428  -10.4526   12.6401 C   0  0  0  0  0  0  0  0  0  0  0  0
   18.7618   -6.8698    6.2897 C   0  0  0  0  0  0  0  0  0  0  0  0
   18.4676   -7.6723    7.5058 C   0  0  0  0  0  0  0  0  0  0  0  0
   19.3299   -7.8207    8.5976 C   0  0  0  0  0  0  0  0  0  0  0  0
   18.5733   -8.6383    9.4155 C   0  0  0  0  0  0  0  0  0  0  0  0
   18.9027   -9.1230   10.6378 N   0  0  0  0  0  0  0  0  0  0  0  0
   18.0121   -9.9303   11.2875 C   0  0  0  0  0  0  0  0  0  0  0  0
   16.7678  -10.2437   10.7003 C   0  0  0  0  0  0  0  0  0  0  0  0
   16.4727   -9.7177    9.4366 C   0  0  0  0  0  0  0  0  0  0  0  0
   15.3786   -9.9719    8.8693 O   0  0  0  0  0  0  0  0  0  0  0  0
   17.3991   -8.9266    8.8451 N   0  0  0  0  0  0  0  0  0  0  0  0
   17.3449   -8.3397    7.6935 O   0  0  0  0  0  0  0  0  0  0  0  0
 19 20  1  0  0  0
 20 21  2  0  0  0
 21 22  1  0  0  0
 22 23  2  0  0  0
 23 24  1  0  0  0
 24 18  1  0  0  0
 24 25  2  0  0  0
 18 17  1  0  0  0
 17  1  1  0  0  0
  1  2  2  0  0  0
  1  3  1  0  0  0
  3  4  2  0  0  0
  4  5  1  0  0  0
  5  6  2  0  0  0
  6  9  1  0  0  0
  6  7  1  0  0  0
  9 10  1  0  0  0
 10 11  2  0  0  0
 10 13  1  0  0  0
 13 14  1  0  0  0
 13 15  1  0  0  0
 13 16  1  0  0  0
  7  8  2  0  0  0
  8  3  1  0  0  0
 25 26  1  0  0  0
 26 27  2  0  0  0
 26 28  1  0  0  0
 28 29  1  0  0  0
 28 22  1  0  0  0
 29 20  1  0  0  0
  9 12  1  0  0  0
M  END
>  <minimizedAffinity>
-6.19833

>  <minimizedRMSD>
1.82010

$$$$
ChemDiv-G357-0549 MCULE-4034774583 MolPort-007-847-233 PubChem-46343287 ZINC000015771643


 34 37  0  0  0  0  0  0  0  0999 V2000
   17.0706   -9.1940   15.8780 C   0  0  0  0  0  0  0  0  0  0  0  0
   16.0360   -8.2938   15.5923 C   0  0  0  0  0  0  0  0  0  0  0  0
   15.3334   -7.6746   16.6295 C   0  0  0  0  0  0  0  0  0  0  0  0
   15.6562   -7.9473   17.9670 C   0  0  0  0  0  0  0  0  0  0  0  0
   16.6892   -8.8462   18.2511 C   0  0  0  0  0  0  0  0  0  0  0  0
   17.3929   -9.4664   17.2147 C   0  0  0  0  0  0  0  0  0  0  0  0
   14.9583   -7.3318   19.0582 N   0  0  0  0  0  0  0  0  0  0  0  0
   13.5358   -7.2061   19.2104 C   0  0  0  0  0  0  0  0  0  0  0  0
   12.7535   -7.6606   18.3318 O   0  0  0  0  0  0  0  0  0  0  0  0
   15.5131   -6.9557   19.7792 H   0  0  0  0  0  0  0  0  0  0  0  0
   12.9856   -6.5396   20.4041 C   0  0  0  0  0  0  0  0  0  0  0  0
   11.9116   -5.6456   20.2868 C   0  0  0  0  0  0  0  0  0  0  0  0
   11.3901   -5.0135   21.4192 C   0  0  0  0  0  0  0  0  0  0  0  0
   11.9338   -5.2659   22.6823 C   0  0  0  0  0  0  0  0  0  0  0  0
   13.0091   -6.1605   22.8030 C   0  0  0  0  0  0  0  0  0  0  0  0
   13.5304   -6.7923   21.6707 C   0  0  0  0  0  0  0  0  0  0  0  0
   11.3901   -4.6181   23.7949 O   0  0  0  0  0  0  0  0  0  0  0  0
   12.0201   -4.6209   25.0687 C   0  0  0  0  0  0  0  0  0  0  0  0
   17.8076   -9.8434   14.7822 C   0  0  0  0  0  0  0  0  0  0  0  0
   19.0686   -9.7944   14.7522 O   0  0  0  0  0  0  0  0  0  0  0  0
   17.1052  -10.5128   13.7776 O   0  0  0  0  0  0  0  0  0  0  0  0
   17.7682  -11.2410   12.7546 C   0  0  0  0  0  0  0  0  0  0  0  0
   17.4394   -9.0987    9.1377 N   0  0  0  0  0  0  0  0  0  0  0  0
   17.4781   -8.3572    8.0332 N   0  0  0  0  0  0  0  0  0  0  0  0
   18.6522   -7.6921    7.9086 C   0  0  0  0  0  0  0  0  0  0  0  0
   19.7000   -7.9963    9.2092 S   0  0  0  0  0  0  0  0  0  0  0  0
   18.5577   -9.0229    9.8895 C   0  0  0  0  0  0  0  0  0  0  0  0
   18.6836   -9.7092   11.0514 N   0  0  0  0  0  0  0  0  0  0  0  0
   17.6576  -10.5041   11.4681 C   0  0  0  0  0  0  0  0  0  0  0  0
   16.4781  -10.5958   10.7107 C   0  0  0  0  0  0  0  0  0  0  0  0
   16.3867   -9.8699    9.5179 C   0  0  0  0  0  0  0  0  0  0  0  0
   15.3437   -9.9330    8.8145 O   0  0  0  0  0  0  0  0  0  0  0  0
   18.9474   -6.7576    6.7894 C   0  0  0  0  0  0  0  0  0  0  0  0
   19.9323   -7.3967    5.8312 C   0  0  0  0  0  0  0  0  0  0  0  0
 23 24  1  0  0  0
 24 25  2  0  0  0
 25 26  1  0  0  0
 26 27  1  0  0  0
 27 28  2  0  0  0
 28 29  1  0  0  0
 29 22  1  0  0  0
 22 21  1  0  0  0
 21 19  1  0  0  0
 19 20  2  0  0  0
 19  1  1  0  0  0
  1  2  2  0  0  0
  2  3  1  0  0  0
  3  4  2  0  0  0
  4  5  1  0  0  0
  5  6  2  0  0  0
  4  7  1  0  0  0
  7  8  1  0  0  0
  8  9  2  0  0  0
  8 11  1  0  0  0
 11 12  2  0  0  0
 12 13  1  0  0  0
 13 14  2  0  0  0
 14 15  1  0  0  0
 15 16  2  0  0  0
 14 17  1  0  0  0
 17 18  1  0  0  0
 29 30  2  0  0  0
 30 31  1  0  0  0
 31 32  2  0  0  0
 25 33  1  0  0  0
 33 34  1  0  0  0
 27 23  1  0  0  0
  6  1  1  0  0  0
 16 11  1  0  0  0
 31 23  1  0  0  0
  7 10  1  0  0  0
M  END
>  <minimizedAffinity>
-6.18905

>  <minimizedRMSD>
2.01954

$$$$
ChemDiv-P184-1350 MCULE-6186259641 MolPort-010-922-330 PubChem-53164124 ZINC000065219908 ZINC65219908


 29 31  0  0  0  0  0  0  0  0999 V2000
   15.8033   -9.9432   11.4998 N   0  0  0  0  0  0  0  0  0  0  0  0
   16.6580  -10.4281   12.5381 C   0  0  0  0  0  0  0  0  0  0  0  0
   17.5056  -11.3285   12.2871 O   0  0  0  0  0  0  0  0  0  0  0  0
   15.1455   -9.2422   11.7123 H   0  0  0  0  0  0  0  0  0  0  0  0
   16.5494   -9.8762   13.8997 C   0  0  0  0  0  0  0  0  0  0  0  0
   16.8227  -10.6795   15.0157 C   0  0  0  0  0  0  0  0  0  0  0  0
   16.7195  -10.1544   16.3070 C   0  0  0  0  0  0  0  0  0  0  0  0
   16.3425   -8.8219   16.5016 C   0  0  0  0  0  0  0  0  0  0  0  0
   16.0688   -8.0171   15.3859 C   0  0  0  0  0  0  0  0  0  0  0  0
   16.1716   -8.5408   14.0944 C   0  0  0  0  0  0  0  0  0  0  0  0
   16.2478   -8.3202   17.8419 N   0  0  0  0  0  0  0  0  0  0  0  0
   15.1173   -7.6698   18.4357 C   0  0  0  0  0  0  0  0  0  0  0  0
   15.2001   -7.2131   19.8472 C   0  0  0  0  0  0  0  0  0  0  0  0
   14.0559   -7.4775   17.7861 O   0  0  0  0  0  0  0  0  0  0  0  0
   17.0416   -8.4344   18.4130 H   0  0  0  0  0  0  0  0  0  0  0  0
   15.8748  -10.4524   10.1402 C   0  0  0  0  0  0  0  0  0  0  0  0
   17.4279   -8.2805    7.7213 N   0  0  0  0  0  0  0  0  0  0  0  0
   16.4226   -9.0505    8.1262 N   0  0  0  0  0  0  0  0  0  0  0  0
   16.7634   -9.5777    9.3267 C   0  0  0  0  0  0  0  0  0  0  0  0
   18.0059   -9.1013    9.6892 C   0  0  0  0  0  0  0  0  0  0  0  0
   18.7972   -9.2984   10.8180 C   0  0  0  0  0  0  0  0  0  0  0  0
   20.0342   -8.6276   10.8598 C   0  0  0  0  0  0  0  0  0  0  0  0
   20.4371   -7.7907    9.7936 C   0  0  0  0  0  0  0  0  0  0  0  0
   19.6088   -7.6109    8.6694 C   0  0  0  0  0  0  0  0  0  0  0  0
   18.3919   -8.2915    8.6584 C   0  0  0  0  0  0  0  0  0  0  0  0
   17.4309   -7.5059    6.4834 C   0  0  0  0  0  0  0  0  0  0  0  0
   18.8451   -9.4559    5.7403 C   0  0  0  0  0  0  0  0  0  0  0  0
   18.4834   -8.0036    5.4930 C   0  0  0  0  0  0  0  0  0  0  0  0
   19.7278   -7.1348    5.5172 C   0  0  0  0  0  0  0  0  0  0  0  0
 27 28  1  0  0  0
 28 29  1  0  0  0
 28 26  1  0  0  0
 26 17  1  0  0  0
 17 18  1  0  0  0
 18 19  2  0  0  0
 19 16  1  0  0  0
 19 20  1  0  0  0
 16  1  1  0  0  0
  1  2  1  0  0  0
  2  3  2  0  0  0
  2  5  1  0  0  0
  5  6  2  0  0  0
  6  7  1  0  0  0
  7  8  2  0  0  0
  8 11  1  0  0  0
  8  9  1  0  0  0
 11 12  1  0  0  0
 12 13  1  0  0  0
 12 14  2  0  0  0
  9 10  2  0  0  0
 10  5  1  0  0  0
 20 21  2  0  0  0
 21 22  1  0  0  0
 22 23  2  0  0  0
 23 24  1  0  0  0
 24 25  2  0  0  0
 25 17  1  0  0  0
 25 20  1  0  0  0
  1  4  1  0  0  0
 11 15  1  0  0  0
M  END
>  <minimizedAffinity>
-6.17702

>  <minimizedRMSD>
2.15441

$$$$
ChemDiv-G756-0770 MCULE-1437813593 MolPort-010-744-661 PubChem-50802594 ZINC000033268579 ZINC33268579


 27 29  0  0  0  0  0  0  0  0999 V2000
   17.1049   -9.9176   13.7098 O   0  0  0  0  0  0  0  0  0  0  0  0
   16.5868   -9.2024   17.2924 C   0  0  0  0  0  0  0  0  0  0  0  0
   17.0826  -10.3561   17.9000 C   0  0  0  0  0  0  0  0  0  0  0  0
   17.6029  -11.3928   17.1246 C   0  0  0  0  0  0  0  0  0  0  0  0
   17.6347  -11.2947   15.7302 C   0  0  0  0  0  0  0  0  0  0  0  0
   18.2162  -12.4468   14.9853 C   0  0  0  0  0  0  0  0  0  0  0  0
   17.1291  -10.1278   15.0979 C   0  0  0  0  0  0  0  0  0  0  0  0
   16.6134   -9.0996   15.8956 C   0  0  0  0  0  0  0  0  0  0  0  0
   14.6909   -7.7639   18.2478 C   0  0  0  0  0  0  0  0  0  0  0  0
   13.7849   -8.3442   17.5937 O   0  0  0  0  0  0  0  0  0  0  0  0
   16.0655   -8.1545   18.1210 N   0  0  0  0  0  0  0  0  0  0  0  0
   16.7187   -7.6508   18.6586 H   0  0  0  0  0  0  0  0  0  0  0  0
   14.2906   -7.1662   20.6057 C   0  0  0  0  0  0  0  0  0  0  0  0
   14.3221   -6.6600   19.1769 C   0  0  0  0  0  0  0  0  0  0  0  0
   18.0225  -10.4677   12.7751 C   0  0  0  0  0  0  0  0  0  0  0  0
   17.6766  -10.0030   11.4065 C   0  0  0  0  0  0  0  0  0  0  0  0
   16.4294  -10.2956   10.8655 C   0  0  0  0  0  0  0  0  0  0  0  0
   16.1238   -9.8266    9.5894 C   0  0  0  0  0  0  0  0  0  0  0  0
   14.9949  -10.0975    9.0948 O   0  0  0  0  0  0  0  0  0  0  0  0
   17.0394   -9.0851    8.8907 N   0  0  0  0  0  0  0  0  0  0  0  0
   16.7329   -8.6296    7.6394 C   0  0  0  0  0  0  0  0  0  0  0  0
   17.6476   -7.8712    6.9089 C   0  0  0  0  0  0  0  0  0  0  0  0
   18.8887   -7.5757    7.4668 C   0  0  0  0  0  0  0  0  0  0  0  0
   19.2072   -8.0370    8.7426 C   0  0  0  0  0  0  0  0  0  0  0  0
   20.5430   -7.7096    9.3193 C   0  0  0  0  0  0  0  0  0  0  0  0
   18.2653   -8.8001    9.4538 C   0  0  0  0  0  0  0  0  0  0  0  0
   18.5635   -9.2601   10.6993 N   0  0  0  0  0  0  0  0  0  0  0  0
 13 14  1  0  0  0
 14  9  1  0  0  0
  9 10  2  0  0  0
  9 11  1  0  0  0
 11  2  1  0  0  0
  2  3  2  0  0  0
  3  4  1  0  0  0
  4  5  2  0  0  0
  5  6  1  0  0  0
  5  7  1  0  0  0
  7  1  1  0  0  0
  7  8  2  0  0  0
  1 15  1  0  0  0
 15 16  1  0  0  0
 16 17  2  0  0  0
 17 18  1  0  0  0
 18 19  2  0  0  0
 18 20  1  0  0  0
 20 21  1  0  0  0
 21 22  2  0  0  0
 22 23  1  0  0  0
 23 24  2  0  0  0
 24 25  1  0  0  0
 24 26  1  0  0  0
 26 27  2  0  0  0
 26 20  1  0  0  0
 27 16  1  0  0  0
  8  2  1  0  0  0
 11 12  1  0  0  0
M  END
>  <minimizedAffinity>
-6.14871

>  <minimizedRMSD>
1.02558

$$$$
ChemDiv-G357-0274 CHEMBL1572980 MCULE-8579535441 MolPort-007-847-121 PubChem-16027490 ZINC000008607158 ZINC08607158


 34 37  0  0  0  0  0  0  0  0999 V2000
   17.7376   -9.7848   14.9831 C   0  0  0  0  0  0  0  0  0  0  0  0
   18.7410  -10.4931   15.2745 O   0  0  0  0  0  0  0  0  0  0  0  0
   16.9727   -9.1165   16.0480 C   0  0  0  0  0  0  0  0  0  0  0  0
   15.9089   -8.2657   15.7211 C   0  0  0  0  0  0  0  0  0  0  0  0
   15.1799   -7.6288   16.7289 C   0  0  0  0  0  0  0  0  0  0  0  0
   15.5048   -7.8345   18.0779 C   0  0  0  0  0  0  0  0  0  0  0  0
   16.5673   -8.6837   18.4030 C   0  0  0  0  0  0  0  0  0  0  0  0
   17.2975   -9.3215   17.3962 C   0  0  0  0  0  0  0  0  0  0  0  0
   14.7815   -7.1982   19.1403 N   0  0  0  0  0  0  0  0  0  0  0  0
   13.4584   -6.6448   19.0776 C   0  0  0  0  0  0  0  0  0  0  0  0
   12.8015   -6.7067   18.0021 O   0  0  0  0  0  0  0  0  0  0  0  0
   15.2429   -7.1339   20.0076 H   0  0  0  0  0  0  0  0  0  0  0  0
   12.8368   -6.0057   20.2687 C   0  0  0  0  0  0  0  0  0  0  0  0
   12.8332   -6.5824   21.5669 C   0  0  0  0  0  0  0  0  0  0  0  0
   13.4705   -7.8933   21.8806 C   0  0  0  0  0  0  0  0  0  0  0  0
   12.2203   -5.9066   22.6277 C   0  0  0  0  0  0  0  0  0  0  0  0
   11.6106   -4.6683   22.4265 C   0  0  0  0  0  0  0  0  0  0  0  0
   11.6104   -4.0922   21.1578 C   0  0  0  0  0  0  0  0  0  0  0  0
   12.2186   -4.7559   20.0913 C   0  0  0  0  0  0  0  0  0  0  0  0
   17.3475   -9.6311   13.6509 O   0  0  0  0  0  0  0  0  0  0  0  0
   17.3927  -10.7074   12.7256 C   0  0  0  0  0  0  0  0  0  0  0  0
   18.8590   -7.9420    7.5186 C   0  0  0  0  0  0  0  0  0  0  0  0
   17.6594   -8.5636    7.6239 N   0  0  0  0  0  0  0  0  0  0  0  0
   17.4881   -9.1266    8.8177 N   0  0  0  0  0  0  0  0  0  0  0  0
   18.5308   -8.9612    9.6585 C   0  0  0  0  0  0  0  0  0  0  0  0
   19.7701   -8.0771    8.9503 S   0  0  0  0  0  0  0  0  0  0  0  0
   18.5209   -9.4685   10.9154 N   0  0  0  0  0  0  0  0  0  0  0  0
   17.4321  -10.1704   11.3399 C   0  0  0  0  0  0  0  0  0  0  0  0
   16.3287  -10.3514   10.4898 C   0  0  0  0  0  0  0  0  0  0  0  0
   16.3780   -9.8115    9.1999 C   0  0  0  0  0  0  0  0  0  0  0  0
   15.4064   -9.9597    8.4120 O   0  0  0  0  0  0  0  0  0  0  0  0
   20.8074   -7.2208    6.1759 C   0  0  0  0  0  0  0  0  0  0  0  0
   19.2948   -7.2327    6.2793 C   0  0  0  0  0  0  0  0  0  0  0  0
   18.6984   -7.8912    5.0506 C   0  0  0  0  0  0  0  0  0  0  0  0
 32 33  1  0  0  0
 33 34  1  0  0  0
 33 22  1  0  0  0
 22 23  2  0  0  0
 23 24  1  0  0  0
 24 25  1  0  0  0
 25 26  1  0  0  0
 25 27  2  0  0  0
 26 22  1  0  0  0
 27 28  1  0  0  0
 28 21  1  0  0  0
 28 29  2  0  0  0
 21 20  1  0  0  0
 20  1  1  0  0  0
  1  2  2  0  0  0
  1  3  1  0  0  0
  3  4  2  0  0  0
  4  5  1  0  0  0
  5  6  2  0  0  0
  6  9  1  0  0  0
  6  7  1  0  0  0
  9 10  1  0  0  0
 10 11  2  0  0  0
 10 13  1  0  0  0
 13 14  2  0  0  0
 14 15  1  0  0  0
 14 16  1  0  0  0
 16 17  2  0  0  0
 17 18  1  0  0  0
 18 19  2  0  0  0
 19 13  1  0  0  0
  7  8  2  0  0  0
  8  3  1  0  0  0
 29 30  1  0  0  0
 30 31  2  0  0  0
 30 24  1  0  0  0
  9 12  1  0  0  0
M  END
>  <minimizedAffinity>
-6.13999

>  <minimizedRMSD>
2.06731

$$$$
ChemDiv-G756-0343 MCULE-8302815314 MolPort-010-744-621 PubChem-50802163 ZINC000033268536 ZINC33268536


 28 30  0  0  0  0  0  0  0  0999 V2000
   18.4407  -12.3137   14.3900 C   0  0  0  0  0  0  0  0  0  0  0  0
   17.8027  -11.2899   15.2645 C   0  0  0  0  0  0  0  0  0  0  0  0
   17.6669  -11.6099   16.6189 C   0  0  0  0  0  0  0  0  0  0  0  0
   17.0808  -10.7090   17.5082 C   0  0  0  0  0  0  0  0  0  0  0  0
   16.6198   -9.4723   17.0564 C   0  0  0  0  0  0  0  0  0  0  0  0
   16.7544   -9.1458   15.7008 C   0  0  0  0  0  0  0  0  0  0  0  0
   17.3390  -10.0340   14.7907 C   0  0  0  0  0  0  0  0  0  0  0  0
   16.0263   -8.5703   18.0001 N   0  0  0  0  0  0  0  0  0  0  0  0
   14.6414   -8.1962   18.0820 C   0  0  0  0  0  0  0  0  0  0  0  0
   13.7907   -8.7247   17.3139 O   0  0  0  0  0  0  0  0  0  0  0  0
   16.6317   -8.1644   18.6619 H   0  0  0  0  0  0  0  0  0  0  0  0
   14.1945   -7.2314   19.1499 C   0  0  0  0  0  0  0  0  0  0  0  0
   13.3185   -7.9619   20.1481 C   0  0  0  0  0  0  0  0  0  0  0  0
   13.4024   -6.0784   18.5556 C   0  0  0  0  0  0  0  0  0  0  0  0
   15.3934   -6.6525   19.8800 C   0  0  0  0  0  0  0  0  0  0  0  0
   17.4215   -9.6030   13.4567 O   0  0  0  0  0  0  0  0  0  0  0  0
   18.5089   -9.8474   12.5762 C   0  0  0  0  0  0  0  0  0  0  0  0
   18.1021   -9.5310   11.1819 C   0  0  0  0  0  0  0  0  0  0  0  0
   16.8990  -10.0184   10.6802 C   0  0  0  0  0  0  0  0  0  0  0  0
   16.5289   -9.6838    9.3786 C   0  0  0  0  0  0  0  0  0  0  0  0
   15.4406  -10.1284    8.9202 O   0  0  0  0  0  0  0  0  0  0  0  0
   17.3390   -8.8838    8.6177 N   0  0  0  0  0  0  0  0  0  0  0  0
   16.9750   -8.5564    7.3417 C   0  0  0  0  0  0  0  0  0  0  0  0
   17.7876   -7.7393    6.5537 C   0  0  0  0  0  0  0  0  0  0  0  0
   18.9831   -7.2540    7.0800 C   0  0  0  0  0  0  0  0  0  0  0  0
   19.3540   -7.5881    8.3812 C   0  0  0  0  0  0  0  0  0  0  0  0
   18.5199   -8.4085    9.1443 C   0  0  0  0  0  0  0  0  0  0  0  0
   18.8833   -8.7325   10.4121 N   0  0  0  0  0  0  0  0  0  0  0  0
  1  2  1  0  0  0
  2  3  2  0  0  0
  3  4  1  0  0  0
  4  5  2  0  0  0
  5  8  1  0  0  0
  5  6  1  0  0  0
  8  9  1  0  0  0
  9 10  2  0  0  0
  9 12  1  0  0  0
 12 13  1  0  0  0
 12 14  1  0  0  0
 12 15  1  0  0  0
  6  7  2  0  0  0
  7 16  1  0  0  0
  7  2  1  0  0  0
 16 17  1  0  0  0
 17 18  1  0  0  0
 18 19  2  0  0  0
 19 20  1  0  0  0
 20 21  2  0  0  0
 20 22  1  0  0  0
 22 23  1  0  0  0
 23 24  2  0  0  0
 24 25  1  0  0  0
 25 26  2  0  0  0
 26 27  1  0  0  0
 27 28  2  0  0  0
 27 22  1  0  0  0
 28 18  1  0  0  0
  8 11  1  0  0  0
M  END
>  <minimizedAffinity>
-6.13612

>  <minimizedRMSD>
0.98812

$$$$
ChemDiv-D483-1714 MCULE-8034774986 MolPort-007-710-984 PubChem-20899110 ZINC000015859276 ZINC15859276


 32 35  0  0  0  0  0  0  0  0999 V2000
   15.6966   -8.7392   13.5699 C   0  0  0  0  0  0  0  0  0  0  0  0
   16.9101   -9.5191   13.7545 N   0  0  0  0  0  0  0  0  0  0  0  0
   17.3885  -10.5131   12.9871 C   0  0  0  0  0  0  0  0  0  0  0  0
   18.5543  -10.9858   13.4704 N   0  0  0  0  0  0  0  0  0  0  0  0
   18.8336  -10.2853   14.5618 N   0  0  0  0  0  0  0  0  0  0  0  0
   17.8324   -9.3994   14.7235 C   0  0  0  0  0  0  0  0  0  0  0  0
   16.7121  -11.0521   11.7663 C   0  0  0  0  0  0  0  0  0  0  0  0
   16.9293  -10.1407   10.5906 C   0  0  0  0  0  0  0  0  0  0  0  0
   15.8972   -9.8782    9.6772 C   0  0  0  0  0  0  0  0  0  0  0  0
   14.5326  -10.4526    9.8557 C   0  0  0  0  0  0  0  0  0  0  0  0
   16.1299   -9.0745    8.6107 N   0  0  0  0  0  0  0  0  0  0  0  0
   17.3459   -8.5122    8.3994 C   0  0  0  0  0  0  0  0  0  0  0  0
   17.5351   -7.6948    7.2826 C   0  0  0  0  0  0  0  0  0  0  0  0
   18.7830   -7.1160    7.0595 C   0  0  0  0  0  0  0  0  0  0  0  0
   19.8273   -7.3563    7.9504 C   0  0  0  0  0  0  0  0  0  0  0  0
   19.6045   -8.1755    9.0589 C   0  0  0  0  0  0  0  0  0  0  0  0
   18.3804   -8.7439    9.2772 N   0  0  0  0  0  0  0  0  0  0  0  0
   18.1835   -9.5467   10.3692 C   0  0  0  0  0  0  0  0  0  0  0  0
   19.1249   -9.7556   11.1863 O   0  0  0  0  0  0  0  0  0  0  0  0
   17.7528   -8.2227   16.0734 S   0  0  0  0  0  0  0  0  0  0  0  0
   16.4178   -9.1226   16.9229 C   0  0  0  0  0  0  0  0  0  0  0  0
   15.5586   -8.1863   17.7002 C   0  0  0  0  0  0  0  0  0  0  0  0
   14.8528   -7.3458   17.0830 O   0  0  0  0  0  0  0  0  0  0  0  0
   15.5331   -8.2705   19.1314 N   0  0  0  0  0  0  0  0  0  0  0  0
   16.0999   -8.9619   19.5436 H   0  0  0  0  0  0  0  0  0  0  0  0
   14.7665   -7.4505   20.0239 C   0  0  0  0  0  0  0  0  0  0  0  0
   13.3978   -7.2117   19.8227 C   0  0  0  0  0  0  0  0  0  0  0  0
   12.6817   -6.4103   20.7161 C   0  0  0  0  0  0  0  0  0  0  0  0
   13.3289   -5.8407   21.8159 C   0  0  0  0  0  0  0  0  0  0  0  0
   12.6345   -5.0686   22.6849 F   0  0  0  0  0  0  0  0  0  0  0  0
   14.6912   -6.0740   22.0224 C   0  0  0  0  0  0  0  0  0  0  0  0
   15.4063   -6.8764   21.1282 C   0  0  0  0  0  0  0  0  0  0  0  0
  1  2  1  0  0  0
  2  3  1  0  0  0
  3  7  1  0  0  0
  3  4  2  0  0  0
  7  8  1  0  0  0
  8  9  2  0  0  0
  9 10  1  0  0  0
  9 11  1  0  0  0
 11 12  2  0  0  0
 12 13  1  0  0  0
 13 14  2  0  0  0
 14 15  1  0  0  0
 15 16  2  0  0  0
 16 17  1  0  0  0
 17 18  1  0  0  0
 17 12  1  0  0  0
 18 19  2  0  0  0
 18  8  1  0  0  0
  4  5  1  0  0  0
  5  6  2  0  0  0
  6 20  1  0  0  0
  6  2  1  0  0  0
 20 21  1  0  0  0
 21 22  1  0  0  0
 22 23  2  0  0  0
 22 24  1  0  0  0
 24 26  1  0  0  0
 26 27  2  0  0  0
 27 28  1  0  0  0
 28 29  2  0  0  0
 29 30  1  0  0  0
 29 31  1  0  0  0
 31 32  2  0  0  0
 32 26  1  0  0  0
 24 25  1  0  0  0
M  END
>  <minimizedAffinity>
-6.13399

>  <minimizedRMSD>
2.83099

$$$$
ChemDiv-G357-1751 MCULE-3836531713 MolPort-007-847-637 PubChem-46343454 ZINC000021632821


 32 35  0  0  0  0  0  0  0  0999 V2000
   16.9834   -9.3291   15.7104 C   0  0  0  0  0  0  0  0  0  0  0  0
   16.1342   -8.2581   15.4046 C   0  0  0  0  0  0  0  0  0  0  0  0
   15.4461   -7.5909   16.4215 C   0  0  0  0  0  0  0  0  0  0  0  0
   15.5983   -7.9862   17.7587 C   0  0  0  0  0  0  0  0  0  0  0  0
   16.4464   -9.0557   18.0630 C   0  0  0  0  0  0  0  0  0  0  0  0
   17.1354   -9.7239   17.0468 C   0  0  0  0  0  0  0  0  0  0  0  0
   14.9093   -7.3263   18.8295 N   0  0  0  0  0  0  0  0  0  0  0  0
   13.5316   -6.9212   18.8481 C   0  0  0  0  0  0  0  0  0  0  0  0
   12.7862   -7.1346   17.8534 O   0  0  0  0  0  0  0  0  0  0  0  0
   15.4365   -7.1303   19.6375 H   0  0  0  0  0  0  0  0  0  0  0  0
   12.9843   -6.2500   20.0404 C   0  0  0  0  0  0  0  0  0  0  0  0
   13.4174   -6.6184   21.3226 C   0  0  0  0  0  0  0  0  0  0  0  0
   12.8986   -5.9823   22.4542 C   0  0  0  0  0  0  0  0  0  0  0  0
   11.9429   -4.9728   22.3120 C   0  0  0  0  0  0  0  0  0  0  0  0
   11.5057   -4.5992   21.0384 C   0  0  0  0  0  0  0  0  0  0  0  0
   12.0244   -5.2353   19.9067 C   0  0  0  0  0  0  0  0  0  0  0  0
   11.3916   -4.2965   23.5149 C   0  0  0  0  0  0  0  0  0  0  0  0
   17.7060  -10.0286   14.6359 C   0  0  0  0  0  0  0  0  0  0  0  0
   18.9641  -10.1228   14.6771 O   0  0  0  0  0  0  0  0  0  0  0  0
   16.9930  -10.5864   13.5724 O   0  0  0  0  0  0  0  0  0  0  0  0
   17.6372  -11.3046   12.5303 C   0  0  0  0  0  0  0  0  0  0  0  0
   18.7562   -8.9049    9.9336 C   0  0  0  0  0  0  0  0  0  0  0  0
   19.9911   -7.8806    9.4641 S   0  0  0  0  0  0  0  0  0  0  0  0
   19.1869   -7.3629    8.0676 C   0  0  0  0  0  0  0  0  0  0  0  0
   17.9569   -8.0260    8.0234 C   0  0  0  0  0  0  0  0  0  0  0  0
   16.9982   -7.7878    6.9050 C   0  0  0  0  0  0  0  0  0  0  0  0
   17.7210   -8.8836    9.0649 N   0  0  0  0  0  0  0  0  0  0  0  0
   16.6155   -9.6579    9.2896 C   0  0  0  0  0  0  0  0  0  0  0  0
   16.5740  -10.4710   10.4272 C   0  0  0  0  0  0  0  0  0  0  0  0
   17.6708  -10.4717   11.2994 C   0  0  0  0  0  0  0  0  0  0  0  0
   18.7484   -9.6804   11.0451 N   0  0  0  0  0  0  0  0  0  0  0  0
   15.6367   -9.6526    8.4967 O   0  0  0  0  0  0  0  0  0  0  0  0
 22 23  1  0  0  0
 23 24  1  0  0  0
 24 25  2  0  0  0
 25 26  1  0  0  0
 25 27  1  0  0  0
 27 28  1  0  0  0
 28 29  1  0  0  0
 29 30  2  0  0  0
 30 21  1  0  0  0
 21 20  1  0  0  0
 20 18  1  0  0  0
 18 19  2  0  0  0
 18  1  1  0  0  0
  1  2  2  0  0  0
  2  3  1  0  0  0
  3  4  2  0  0  0
  4  5  1  0  0  0
  5  6  2  0  0  0
  4  7  1  0  0  0
  7  8  1  0  0  0
  8  9  2  0  0  0
  8 11  1  0  0  0
 11 12  2  0  0  0
 12 13  1  0  0  0
 13 14  2  0  0  0
 14 15  1  0  0  0
 15 16  2  0  0  0
 14 17  1  0  0  0
 30 31  1  0  0  0
 28 32  2  0  0  0
 27 22  1  0  0  0
  6  1  1  0  0  0
 16 11  1  0  0  0
 31 22  2  0  0  0
  7 10  1  0  0  0
M  END
>  <minimizedAffinity>
-6.12129

>  <minimizedRMSD>
1.85796

$$$$
ChemDiv-G357-0262 MCULE-1452289993 MolPort-007-847-115 PubChem-20952964 ZINC000015771486 ZINC15771486


 30 32  0  0  0  0  0  0  0  0999 V2000
   17.2754   -9.3440   15.6532 C   0  0  0  0  0  0  0  0  0  0  0  0
   18.2787   -9.9175   16.1609 O   0  0  0  0  0  0  0  0  0  0  0  0
   14.3706   -7.4522   18.1728 C   0  0  0  0  0  0  0  0  0  0  0  0
   15.5448   -7.9774   18.7217 C   0  0  0  0  0  0  0  0  0  0  0  0
   16.4943   -8.5950   17.9026 C   0  0  0  0  0  0  0  0  0  0  0  0
   16.2795   -8.6950   16.5210 C   0  0  0  0  0  0  0  0  0  0  0  0
   15.1036   -8.1698   15.9704 C   0  0  0  0  0  0  0  0  0  0  0  0
   14.1551   -7.5527   16.7904 C   0  0  0  0  0  0  0  0  0  0  0  0
   12.0362   -6.5729   18.7674 C   0  0  0  0  0  0  0  0  0  0  0  0
   11.5265   -6.8800   17.6575 O   0  0  0  0  0  0  0  0  0  0  0  0
   13.4200   -6.8275   19.0463 N   0  0  0  0  0  0  0  0  0  0  0  0
   13.7516   -6.5439   19.9288 H   0  0  0  0  0  0  0  0  0  0  0  0
   11.1869   -5.9170   19.7994 C   0  0  0  0  0  0  0  0  0  0  0  0
   11.3639   -4.8842   22.0405 C   0  0  0  0  0  0  0  0  0  0  0  0
   12.0364   -5.0338   20.6925 C   0  0  0  0  0  0  0  0  0  0  0  0
   17.1043   -9.3217   14.2672 O   0  0  0  0  0  0  0  0  0  0  0  0
   17.4204  -10.4411   13.4529 C   0  0  0  0  0  0  0  0  0  0  0  0
   17.3485  -10.0503   12.0203 C   0  0  0  0  0  0  0  0  0  0  0  0
   16.2030  -10.3606   11.2690 C   0  0  0  0  0  0  0  0  0  0  0  0
   16.1471   -9.9572    9.9303 C   0  0  0  0  0  0  0  0  0  0  0  0
   15.1354  -10.2235    9.2287 O   0  0  0  0  0  0  0  0  0  0  0  0
   17.1995   -9.2747    9.4067 N   0  0  0  0  0  0  0  0  0  0  0  0
   17.2704   -8.8338    8.1530 N   0  0  0  0  0  0  0  0  0  0  0  0
   18.4322   -8.1819    7.9046 C   0  0  0  0  0  0  0  0  0  0  0  0
   19.4363   -8.1316    9.2786 S   0  0  0  0  0  0  0  0  0  0  0  0
   18.2845   -8.9830   10.1546 C   0  0  0  0  0  0  0  0  0  0  0  0
   18.3761   -9.3560   11.4544 N   0  0  0  0  0  0  0  0  0  0  0  0
   18.7573   -7.5894    6.5733 C   0  0  0  0  0  0  0  0  0  0  0  0
   20.2454   -7.3228    6.4572 C   0  0  0  0  0  0  0  0  0  0  0  0
   18.3074   -8.5095    5.4554 C   0  0  0  0  0  0  0  0  0  0  0  0
 14 15  1  0  0  0
 15 13  1  0  0  0
 13  9  1  0  0  0
  9 10  2  0  0  0
  9 11  1  0  0  0
 11  3  1  0  0  0
  3  4  2  0  0  0
  4  5  1  0  0  0
  5  6  2  0  0  0
  6  7  1  0  0  0
  6  1  1  0  0  0
  7  8  2  0  0  0
  8  3  1  0  0  0
  1  2  2  0  0  0
  1 16  1  0  0  0
 16 17  1  0  0  0
 17 18  1  0  0  0
 18 19  2  0  0  0
 19 20  1  0  0  0
 20 21  2  0  0  0
 20 22  1  0  0  0
 22 23  1  0  0  0
 23 24  2  0  0  0
 24 25  1  0  0  0
 24 28  1  0  0  0
 25 26  1  0  0  0
 26 27  2  0  0  0
 26 22  1  0  0  0
 27 18  1  0  0  0
 28 29  1  0  0  0
 28 30  1  0  0  0
 11 12  1  0  0  0
M  END
>  <minimizedAffinity>
-6.11433

>  <minimizedRMSD>
2.75812

$$$$
ChemDiv-G857-2196 MCULE-2656059722 MolPort-003-602-797 PubChem-7424153 ZINC000004941890


 26 28  0  0  0  0  0  0  0  0999 V2000
   17.3362  -10.2528   12.8308 C   0  0  0  0  0  0  0  0  0  0  0  0
   17.9228   -9.3988   11.8086 N   0  0  0  0  0  0  0  0  0  0  0  0
   18.6223   -8.7631   12.0838 H   0  0  0  0  0  0  0  0  0  0  0  0
   18.2367   -8.7373    9.4313 C   0  0  0  0  0  0  0  0  0  0  0  0
   17.5459   -9.4259   10.4278 C   0  0  0  0  0  0  0  0  0  0  0  0
   16.4552  -10.1527   10.0370 N   0  0  0  0  0  0  0  0  0  0  0  0
   16.0546  -10.2058    8.7239 C   0  0  0  0  0  0  0  0  0  0  0  0
   16.7426   -9.5247    7.7571 N   0  0  0  0  0  0  0  0  0  0  0  0
   17.8210   -8.8069    8.1492 C   0  0  0  0  0  0  0  0  0  0  0  0
   18.6448   -8.0643    7.4059 N   0  0  0  0  0  0  0  0  0  0  0  0
   19.5501   -7.5504    8.2326 N   0  0  0  0  0  0  0  0  0  0  0  0
   19.3264   -7.9459    9.4881 N   0  0  0  0  0  0  0  0  0  0  0  0
   18.5945   -7.8362    5.9729 C   0  0  0  0  0  0  0  0  0  0  0  0
   18.1257  -10.1333   14.1252 C   0  0  0  0  0  0  0  0  0  0  0  0
   17.2959   -9.5335   15.2119 C   0  0  0  0  0  0  0  0  0  0  0  0
   17.4257  -10.0058   16.5220 C   0  0  0  0  0  0  0  0  0  0  0  0
   16.6598   -9.4450   17.5483 C   0  0  0  0  0  0  0  0  0  0  0  0
   15.7620   -8.4088   17.2684 C   0  0  0  0  0  0  0  0  0  0  0  0
   15.6399   -7.9285   15.9597 C   0  0  0  0  0  0  0  0  0  0  0  0
   16.4056   -8.4888   14.9332 C   0  0  0  0  0  0  0  0  0  0  0  0
   14.8091   -7.6982   18.5583 S   0  0  0  0  0  0  0  0  0  0  0  0
   15.8599   -7.1168   19.7995 N   0  0  0  0  0  0  0  0  0  0  0  0
   13.9933   -6.5582   18.0166 O   0  0  0  0  0  0  0  0  0  0  0  0
   13.8802   -8.7318   19.1306 O   0  0  0  0  0  0  0  0  0  0  0  0
   16.4900   -6.4154   19.4106 H   0  0  0  0  0  0  0  0  0  0  0  0
   16.4051   -7.8930   20.1746 H   0  0  0  0  0  0  0  0  0  0  0  0
  4  5  1  0  0  0
  5  2  1  0  0  0
  2  1  1  0  0  0
  1 14  1  0  0  0
 14 15  1  0  0  0
 15 16  2  0  0  0
 16 17  1  0  0  0
 17 18  2  0  0  0
 18 19  1  0  0  0
 19 20  2  0  0  0
 18 21  1  0  0  0
 21 22  1  0  0  0
 21 23  2  0  0  0
 21 24  2  0  0  0
  5  6  2  0  0  0
  6  7  1  0  0  0
  7  8  2  0  0  0
  8  9  1  0  0  0
  9 10  1  0  0  0
 10 11  1  0  0  0
 11 12  2  0  0  0
 10 13  1  0  0  0
  9  4  2  0  0  0
 12  4  1  0  0  0
 20 15  1  0  0  0
  2  3  1  0  0  0
 22 25  1  0  0  0
 22 26  1  0  0  0
M  END
>  <minimizedAffinity>
-6.11111

>  <minimizedRMSD>
1.49934

$$$$
ChemDiv-G357-0002 MCULE-9050200985 MolPort-007-846-993 PubChem-46343188 ZINC000015771322


 31 34  0  0  0  0  0  0  0  0999 V2000
   16.9937   -9.3111   16.0168 C   0  0  0  0  0  0  0  0  0  0  0  0
   17.1996   -9.5726   17.3785 C   0  0  0  0  0  0  0  0  0  0  0  0
   16.4712   -8.8783   18.3488 C   0  0  0  0  0  0  0  0  0  0  0  0
   15.5294   -7.9151   17.9728 C   0  0  0  0  0  0  0  0  0  0  0  0
   15.3232   -7.6533   16.6103 C   0  0  0  0  0  0  0  0  0  0  0  0
   16.0505   -8.3467   15.6392 C   0  0  0  0  0  0  0  0  0  0  0  0
   14.8018   -7.2251   18.9980 N   0  0  0  0  0  0  0  0  0  0  0  0
   13.4300   -6.8036   18.9466 C   0  0  0  0  0  0  0  0  0  0  0  0
   12.7283   -7.0247   17.9221 O   0  0  0  0  0  0  0  0  0  0  0  0
   15.2951   -7.0185   19.8246 H   0  0  0  0  0  0  0  0  0  0  0  0
   12.8368   -6.1061   20.1013 C   0  0  0  0  0  0  0  0  0  0  0  0
   12.8327   -6.7088   21.3679 C   0  0  0  0  0  0  0  0  0  0  0  0
   12.2692   -6.0484   22.4637 C   0  0  0  0  0  0  0  0  0  0  0  0
   11.7059   -4.7800   22.3011 C   0  0  0  0  0  0  0  0  0  0  0  0
   11.7059   -4.1717   21.0431 C   0  0  0  0  0  0  0  0  0  0  0  0
   12.2691   -4.8322   19.9473 C   0  0  0  0  0  0  0  0  0  0  0  0
   17.7568  -10.0392   14.9904 C   0  0  0  0  0  0  0  0  0  0  0  0
   18.6199  -10.8944   15.3321 O   0  0  0  0  0  0  0  0  0  0  0  0
   17.5202   -9.7792   13.6387 O   0  0  0  0  0  0  0  0  0  0  0  0
   17.6249  -10.7922   12.6492 C   0  0  0  0  0  0  0  0  0  0  0  0
   17.4934   -8.9820    8.8433 N   0  0  0  0  0  0  0  0  0  0  0  0
   17.5923   -8.3414    7.6809 N   0  0  0  0  0  0  0  0  0  0  0  0
   18.7563   -7.6565    7.5765 C   0  0  0  0  0  0  0  0  0  0  0  0
   19.7259   -7.8266    8.9583 S   0  0  0  0  0  0  0  0  0  0  0  0
   18.5584   -8.8135    9.6552 C   0  0  0  0  0  0  0  0  0  0  0  0
   18.6212   -9.3934   10.8786 N   0  0  0  0  0  0  0  0  0  0  0  0
   17.5850  -10.1736   11.2979 C   0  0  0  0  0  0  0  0  0  0  0  0
   16.4595  -10.3596   10.4780 C   0  0  0  0  0  0  0  0  0  0  0  0
   16.4330   -9.7430    9.2222 C   0  0  0  0  0  0  0  0  0  0  0  0
   15.4400   -9.8933    8.4620 O   0  0  0  0  0  0  0  0  0  0  0  0
   19.1257   -6.8522    6.3830 C   0  0  0  0  0  0  0  0  0  0  0  0
 21 22  1  0  0  0
 22 23  2  0  0  0
 23 24  1  0  0  0
 24 25  1  0  0  0
 25 26  2  0  0  0
 26 27  1  0  0  0
 27 20  1  0  0  0
 20 19  1  0  0  0
 19 17  1  0  0  0
 17 18  2  0  0  0
 17  1  1  0  0  0
  1  2  2  0  0  0
  2  3  1  0  0  0
  3  4  2  0  0  0
  4  5  1  0  0  0
  5  6  2  0  0  0
  4  7  1  0  0  0
  7  8  1  0  0  0
  8 11  1  0  0  0
 11 12  2  0  0  0
 12 13  1  0  0  0
 13 14  2  0  0  0
 14 15  1  0  0  0
 15 16  2  0  0  0
  8  9  2  0  0  0
 27 28  2  0  0  0
 28 29  1  0  0  0
 29 30  2  0  0  0
 23 31  1  0  0  0
 25 21  1  0  0  0
  6  1  1  0  0  0
 16 11  1  0  0  0
 29 21  1  0  0  0
  7 10  1  0  0  0
M  END
>  <minimizedAffinity>
-6.08517

>  <minimizedRMSD>
1.89802

$$$$
ChemDiv-G357-0763 MCULE-6107312743 MolPort-007-847-320 PubChem-20953041 ZINC000015771777 ZINC15771777


 32 34  0  0  0  0  0  0  0  0999 V2000
   17.7040   -9.9893   15.3142 C   0  0  0  0  0  0  0  0  0  0  0  0
   18.3813  -10.9022   15.8634 O   0  0  0  0  0  0  0  0  0  0  0  0
   14.8839   -7.7213   17.6097 C   0  0  0  0  0  0  0  0  0  0  0  0
   14.8456   -7.6939   16.2078 C   0  0  0  0  0  0  0  0  0  0  0  0
   15.7661   -8.4340   15.4610 C   0  0  0  0  0  0  0  0  0  0  0  0
   16.7369   -9.2116   16.1052 C   0  0  0  0  0  0  0  0  0  0  0  0
   16.7745   -9.2393   17.5062 C   0  0  0  0  0  0  0  0  0  0  0  0
   15.8530   -8.4986   18.2520 C   0  0  0  0  0  0  0  0  0  0  0  0
   12.5915   -7.3253   18.6877 C   0  0  0  0  0  0  0  0  0  0  0  0
   12.0685   -8.3608   18.1976 O   0  0  0  0  0  0  0  0  0  0  0  0
   13.9548   -6.9774   18.4095 N   0  0  0  0  0  0  0  0  0  0  0  0
   14.2872   -6.1413   18.8091 H   0  0  0  0  0  0  0  0  0  0  0  0
   11.7691   -6.4381   19.5605 C   0  0  0  0  0  0  0  0  0  0  0  0
   11.9577   -4.4159   20.9743 C   0  0  0  0  0  0  0  0  0  0  0  0
   12.6381   -5.7068   20.5716 C   0  0  0  0  0  0  0  0  0  0  0  0
   12.8459   -6.5646   21.8059 C   0  0  0  0  0  0  0  0  0  0  0  0
   17.8677   -9.7122   13.9553 O   0  0  0  0  0  0  0  0  0  0  0  0
   17.8744  -10.7389   12.9743 C   0  0  0  0  0  0  0  0  0  0  0  0
   17.7049  -10.1387   11.6249 C   0  0  0  0  0  0  0  0  0  0  0  0
   16.5379  -10.3983   10.8873 C   0  0  0  0  0  0  0  0  0  0  0  0
   16.3883   -9.7982    9.6322 C   0  0  0  0  0  0  0  0  0  0  0  0
   15.3550  -10.0133    8.9446 O   0  0  0  0  0  0  0  0  0  0  0  0
   17.3738   -8.9819    9.1744 N   0  0  0  0  0  0  0  0  0  0  0  0
   17.3526   -8.3477    8.0047 N   0  0  0  0  0  0  0  0  0  0  0  0
   18.4656   -7.5990    7.8116 C   0  0  0  0  0  0  0  0  0  0  0  0
   19.5357   -7.6961    9.1261 S   0  0  0  0  0  0  0  0  0  0  0  0
   18.4810   -8.7434    9.9083 C   0  0  0  0  0  0  0  0  0  0  0  0
   18.6622   -9.3049   11.1285 N   0  0  0  0  0  0  0  0  0  0  0  0
   18.6925   -6.7602    6.5933 C   0  0  0  0  0  0  0  0  0  0  0  0
   19.3894   -7.5150    5.4596 C   0  0  0  0  0  0  0  0  0  0  0  0
   19.0248   -8.9887    5.4497 C   0  0  0  0  0  0  0  0  0  0  0  0
   20.8968   -7.3392    5.5026 C   0  0  0  0  0  0  0  0  0  0  0  0
 14 15  1  0  0  0
 15 16  1  0  0  0
 15 13  1  0  0  0
 13  9  1  0  0  0
  9 10  2  0  0  0
  9 11  1  0  0  0
 11  3  1  0  0  0
  3  4  2  0  0  0
  4  5  1  0  0  0
  5  6  2  0  0  0
  6  7  1  0  0  0
  6  1  1  0  0  0
  7  8  2  0  0  0
  8  3  1  0  0  0
  1  2  2  0  0  0
  1 17  1  0  0  0
 17 18  1  0  0  0
 18 19  1  0  0  0
 19 20  2  0  0  0
 20 21  1  0  0  0
 21 22  2  0  0  0
 21 23  1  0  0  0
 23 24  1  0  0  0
 24 25  2  0  0  0
 25 29  1  0  0  0
 25 26  1  0  0  0
 29 30  1  0  0  0
 30 31  1  0  0  0
 30 32  1  0  0  0
 26 27  1  0  0  0
 27 28  2  0  0  0
 27 23  1  0  0  0
 28 19  1  0  0  0
 11 12  1  0  0  0
M  END
>  <minimizedAffinity>
-6.07640

>  <minimizedRMSD>
2.55702

$$$$
ChemDiv-D483-1621 MCULE-8997917160 MolPort-007-710-963 PubChem-20899092 ZINC000015859257


 35 38  0  0  0  0  0  0  0  0999 V2000
   16.4320   -9.7042   13.3724 C   0  0  0  0  0  0  0  0  0  0  0  0
   15.8482   -8.4963   13.2411 N   0  0  0  0  0  0  0  0  0  0  0  0
   15.9255   -7.8982   14.4224 N   0  0  0  0  0  0  0  0  0  0  0  0
   16.5551   -8.7521   15.2523 C   0  0  0  0  0  0  0  0  0  0  0  0
   16.8905   -9.8906   14.6226 N   0  0  0  0  0  0  0  0  0  0  0  0
   17.5640  -11.0544   15.1756 C   0  0  0  0  0  0  0  0  0  0  0  0
   16.5715  -10.6838   12.2498 C   0  0  0  0  0  0  0  0  0  0  0  0
   18.5395   -8.7693    9.6409 N   0  0  0  0  0  0  0  0  0  0  0  0
   19.7719   -8.1950    9.5002 C   0  0  0  0  0  0  0  0  0  0  0  0
   20.1374   -7.5598    8.3134 C   0  0  0  0  0  0  0  0  0  0  0  0
   19.2299   -7.5112    7.2593 C   0  0  0  0  0  0  0  0  0  0  0  0
   17.9718   -8.0947    7.3958 C   0  0  0  0  0  0  0  0  0  0  0  0
   17.0160   -8.0303    6.2532 C   0  0  0  0  0  0  0  0  0  0  0  0
   17.6336   -8.7288    8.6041 C   0  0  0  0  0  0  0  0  0  0  0  0
   16.4088   -9.2984    8.7506 N   0  0  0  0  0  0  0  0  0  0  0  0
   16.0464   -9.9225    9.8974 C   0  0  0  0  0  0  0  0  0  0  0  0
   14.6750  -10.5011    9.9933 C   0  0  0  0  0  0  0  0  0  0  0  0
   16.9484   -9.9908   10.9687 C   0  0  0  0  0  0  0  0  0  0  0  0
   18.2078   -9.3849   10.8188 C   0  0  0  0  0  0  0  0  0  0  0  0
   19.0284   -9.4071   11.7800 O   0  0  0  0  0  0  0  0  0  0  0  0
   16.9036   -8.3946   16.9736 S   0  0  0  0  0  0  0  0  0  0  0  0
   15.1649   -8.6032   17.4664 C   0  0  0  0  0  0  0  0  0  0  0  0
   14.8214   -7.6734   18.5787 C   0  0  0  0  0  0  0  0  0  0  0  0
   14.1620   -6.6271   18.3375 O   0  0  0  0  0  0  0  0  0  0  0  0
   15.2418   -7.9954   19.9102 N   0  0  0  0  0  0  0  0  0  0  0  0
   15.7701   -8.8189   20.0196 H   0  0  0  0  0  0  0  0  0  0  0  0
   14.9721   -7.2413   21.0998 C   0  0  0  0  0  0  0  0  0  0  0  0
   13.6639   -7.0149   21.5555 C   0  0  0  0  0  0  0  0  0  0  0  0
   13.4389   -6.2783   22.7210 C   0  0  0  0  0  0  0  0  0  0  0  0
   14.5226   -5.7602   23.4470 C   0  0  0  0  0  0  0  0  0  0  0  0
   15.8269   -5.9867   22.9942 C   0  0  0  0  0  0  0  0  0  0  0  0
   16.0492   -6.7246   21.8278 C   0  0  0  0  0  0  0  0  0  0  0  0
   14.3121   -4.9626   24.6960 C   0  0  0  0  0  0  0  0  0  0  0  0
   15.0469   -3.6359   24.6280 C   0  0  0  0  0  0  0  0  0  0  0  0
   12.8345   -4.7282   24.9535 C   0  0  0  0  0  0  0  0  0  0  0  0
  8  9  1  0  0  0
  9 10  2  0  0  0
 10 11  1  0  0  0
 11 12  2  0  0  0
 12 13  1  0  0  0
 12 14  1  0  0  0
 14 15  2  0  0  0
 15 16  1  0  0  0
 16 17  1  0  0  0
 16 18  2  0  0  0
 18  7  1  0  0  0
  7  1  1  0  0  0
  1  2  2  0  0  0
  2  3  1  0  0  0
  3  4  2  0  0  0
  4 21  1  0  0  0
 21 22  1  0  0  0
 22 23  1  0  0  0
 23 24  2  0  0  0
 23 25  1  0  0  0
 25 27  1  0  0  0
 27 28  2  0  0  0
 28 29  1  0  0  0
 29 30  2  0  0  0
 30 31  1  0  0  0
 31 32  2  0  0  0
 30 33  1  0  0  0
 33 34  1  0  0  0
 33 35  1  0  0  0
  4  5  1  0  0  0
  5  6  1  0  0  0
 18 19  1  0  0  0
 19 20  2  0  0  0
 14  8  1  0  0  0
  5  1  1  0  0  0
 19  8  1  0  0  0
 32 27  1  0  0  0
 25 26  1  0  0  0
M  END
>  <minimizedAffinity>
-6.06960

>  <minimizedRMSD>
2.21371

$$$$
ChemDiv-D466-0462 MCULE-4812507894 MolPort-010-677-113 PubChem-50750497 ZINC000021800219


 29 32  0  0  0  0  0  0  0  0999 V2000
   16.6165   -9.4019   16.7212 C   0  0  0  0  0  0  0  0  0  0  0  0
   15.9309   -9.4036   15.4987 C   0  0  0  0  0  0  0  0  0  0  0  0
   16.3759  -10.1913   14.4324 C   0  0  0  0  0  0  0  0  0  0  0  0
   17.5285  -10.9819   14.5759 C   0  0  0  0  0  0  0  0  0  0  0  0
   18.2127  -10.9791   15.8022 C   0  0  0  0  0  0  0  0  0  0  0  0
   17.7577  -10.1954   16.8653 C   0  0  0  0  0  0  0  0  0  0  0  0
   15.0200   -7.7659   17.8897 C   0  0  0  0  0  0  0  0  0  0  0  0
   14.2633   -7.6455   16.8904 O   0  0  0  0  0  0  0  0  0  0  0  0
   16.1827   -8.6082   17.8338 N   0  0  0  0  0  0  0  0  0  0  0  0
   16.7400   -8.6441   18.6446 H   0  0  0  0  0  0  0  0  0  0  0  0
   14.6848   -7.0007   19.1352 C   0  0  0  0  0  0  0  0  0  0  0  0
   13.7164   -7.5958   21.3564 C   0  0  0  0  0  0  0  0  0  0  0  0
   14.8854   -7.8051   20.4126 C   0  0  0  0  0  0  0  0  0  0  0  0
   17.9752  -11.7568   13.4990 O   0  0  0  0  0  0  0  0  0  0  0  0
   19.3523  -11.9273   13.1923 C   0  0  0  0  0  0  0  0  0  0  0  0
   15.6342  -10.1452   13.1372 C   0  0  0  0  0  0  0  0  0  0  0  0
   16.5551   -9.8645   12.0483 N   0  0  0  0  0  0  0  0  0  0  0  0
   17.0013   -8.4734   12.2073 C   0  0  0  0  0  0  0  0  0  0  0  0
   18.0435   -8.1095   11.1372 C   0  0  0  0  0  0  0  0  0  0  0  0
   17.6307   -8.6501    9.8460 N   0  0  0  0  0  0  0  0  0  0  0  0
   16.6280   -9.5326    9.6569 C   0  0  0  0  0  0  0  0  0  0  0  0
   15.7894   -9.9951   10.8028 C   0  0  0  0  0  0  0  0  0  0  0  0
   16.4563   -9.9034    8.3615 N   0  0  0  0  0  0  0  0  0  0  0  0
   17.4331   -9.2131    7.7350 C   0  0  0  0  0  0  0  0  0  0  0  0
   17.7361   -9.2179    6.3758 C   0  0  0  0  0  0  0  0  0  0  0  0
   18.8113   -8.4153    5.9483 C   0  0  0  0  0  0  0  0  0  0  0  0
   19.5458   -7.6402    6.8749 C   0  0  0  0  0  0  0  0  0  0  0  0
   19.2161   -7.6550    8.2430 C   0  0  0  0  0  0  0  0  0  0  0  0
   18.1464   -8.4603    8.6279 C   0  0  0  0  0  0  0  0  0  0  0  0
 12 13  1  0  0  0
 13 11  1  0  0  0
 11  7  1  0  0  0
  7  8  2  0  0  0
  7  9  1  0  0  0
  9  1  1  0  0  0
  1  2  2  0  0  0
  2  3  1  0  0  0
  3 16  1  0  0  0
  3  4  2  0  0  0
 16 17  1  0  0  0
 17 18  1  0  0  0
 18 19  1  0  0  0
 19 20  1  0  0  0
 20 21  1  0  0  0
 21 22  1  0  0  0
 21 23  2  0  0  0
 22 17  1  0  0  0
 23 24  1  0  0  0
 24 25  2  0  0  0
 25 26  1  0  0  0
 26 27  2  0  0  0
 27 28  1  0  0  0
 28 29  2  0  0  0
 29 24  1  0  0  0
 29 20  1  0  0  0
  4 14  1  0  0  0
  4  5  1  0  0  0
 14 15  1  0  0  0
  5  6  2  0  0  0
  6  1  1  0  0  0
  9 10  1  0  0  0
M  END
>  <minimizedAffinity>
-6.06843

>  <minimizedRMSD>
1.17435

$$$$
ChemDiv-C679-4363 MCULE-7657169809 MolPort-007-655-848 PubChem-20874246 ZINC000013368069 ZINC13368069


 28 30  0  0  0  0  0  0  0  0999 V2000
   16.7612   -8.8518   17.2182 C   0  0  0  0  0  0  0  0  0  0  0  0
   16.3581   -9.4585   16.0188 C   0  0  0  0  0  0  0  0  0  0  0  0
   17.2853   -9.7247   15.0064 C   0  0  0  0  0  0  0  0  0  0  0  0
   18.6323   -9.3785   15.1975 C   0  0  0  0  0  0  0  0  0  0  0  0
   19.0403   -8.7737   16.3888 C   0  0  0  0  0  0  0  0  0  0  0  0
   18.1064   -8.5116   17.3946 C   0  0  0  0  0  0  0  0  0  0  0  0
   14.6472   -7.7650   18.1766 C   0  0  0  0  0  0  0  0  0  0  0  0
   14.2948   -7.2469   17.0832 O   0  0  0  0  0  0  0  0  0  0  0  0
   15.8329   -8.5643   18.2728 N   0  0  0  0  0  0  0  0  0  0  0  0
   16.0305   -8.9565   19.1539 H   0  0  0  0  0  0  0  0  0  0  0  0
   13.8103   -7.5590   19.3944 C   0  0  0  0  0  0  0  0  0  0  0  0
   14.4177   -6.5031   20.3049 C   0  0  0  0  0  0  0  0  0  0  0  0
   16.6182   -6.6338   21.4298 C   0  0  0  0  0  0  0  0  0  0  0  0
   15.1979   -7.1576   21.4298 C   0  0  0  0  0  0  0  0  0  0  0  0
   16.8438  -10.3303   13.8273 O   0  0  0  0  0  0  0  0  0  0  0  0
   17.7268  -10.9717   12.9164 C   0  0  0  0  0  0  0  0  0  0  0  0
   17.6280  -10.3199   11.5839 C   0  0  0  0  0  0  0  0  0  0  0  0
   16.4661  -10.4835   10.8116 C   0  0  0  0  0  0  0  0  0  0  0  0
   16.3854   -9.8375    9.5730 C   0  0  0  0  0  0  0  0  0  0  0  0
   15.3583   -9.9663    8.8553 O   0  0  0  0  0  0  0  0  0  0  0  0
   17.4311   -9.0716    9.1640 N   0  0  0  0  0  0  0  0  0  0  0  0
   17.4786   -8.4020    8.0148 N   0  0  0  0  0  0  0  0  0  0  0  0
   18.6424   -7.7231    7.8700 C   0  0  0  0  0  0  0  0  0  0  0  0
   19.6691   -7.9223    9.2071 S   0  0  0  0  0  0  0  0  0  0  0  0
   18.5324   -8.9255    9.9305 C   0  0  0  0  0  0  0  0  0  0  0  0
   18.6474   -9.5335   11.1364 N   0  0  0  0  0  0  0  0  0  0  0  0
   18.9430   -6.8569    6.6985 C   0  0  0  0  0  0  0  0  0  0  0  0
   20.0110   -7.5044    5.8400 C   0  0  0  0  0  0  0  0  0  0  0  0
 13 14  1  0  0  0
 14 12  1  0  0  0
 12 11  1  0  0  0
 11  7  1  0  0  0
  7  8  2  0  0  0
  7  9  1  0  0  0
  9  1  1  0  0  0
  1  2  2  0  0  0
  2  3  1  0  0  0
  3 15  1  0  0  0
  3  4  2  0  0  0
 15 16  1  0  0  0
 16 17  1  0  0  0
 17 18  2  0  0  0
 18 19  1  0  0  0
 19 20  2  0  0  0
 19 21  1  0  0  0
 21 22  1  0  0  0
 22 23  2  0  0  0
 23 27  1  0  0  0
 23 24  1  0  0  0
 27 28  1  0  0  0
 24 25  1  0  0  0
 25 26  2  0  0  0
 25 21  1  0  0  0
 26 17  1  0  0  0
  4  5  1  0  0  0
  5  6  2  0  0  0
  6  1  1  0  0  0
  9 10  1  0  0  0
M  END
>  <minimizedAffinity>
-6.04087

>  <minimizedRMSD>
1.69658

$$$$
ChemDiv-D483-1230 MCULE-5852737531 MolPort-007-710-896 PubChem-20899026 ZINC000015859185 ZINC15859185


 34 37  0  0  0  0  0  0  0  0999 V2000
   16.9351   -8.6023   14.8022 C   0  0  0  0  0  0  0  0  0  0  0  0
   15.9794   -8.0405   14.0373 N   0  0  0  0  0  0  0  0  0  0  0  0
   15.9450   -8.7246   12.9012 N   0  0  0  0  0  0  0  0  0  0  0  0
   16.8778   -9.6927   12.9957 C   0  0  0  0  0  0  0  0  0  0  0  0
   17.5199   -9.6371   14.1760 N   0  0  0  0  0  0  0  0  0  0  0  0
   18.5844  -10.4955   14.6698 C   0  0  0  0  0  0  0  0  0  0  0  0
   17.3712   -8.0179   16.4399 S   0  0  0  0  0  0  0  0  0  0  0  0
   16.0000   -8.9093   17.2368 C   0  0  0  0  0  0  0  0  0  0  0  0
   15.4393   -8.2036   19.5937 N   0  0  0  0  0  0  0  0  0  0  0  0
   15.2773   -8.0144   18.1818 C   0  0  0  0  0  0  0  0  0  0  0  0
   14.5448   -7.0974   17.7242 O   0  0  0  0  0  0  0  0  0  0  0  0
   16.0362   -8.9339   19.8757 H   0  0  0  0  0  0  0  0  0  0  0  0
   13.6838   -5.9262   22.7192 C   0  0  0  0  0  0  0  0  0  0  0  0
   12.8614   -6.6132   21.8119 C   0  0  0  0  0  0  0  0  0  0  0  0
   13.4277   -7.3637   20.7781 C   0  0  0  0  0  0  0  0  0  0  0  0
   14.8214   -7.4385   20.6372 C   0  0  0  0  0  0  0  0  0  0  0  0
   15.6379   -6.7522   21.5422 C   0  0  0  0  0  0  0  0  0  0  0  0
   15.0730   -6.0005   22.5769 C   0  0  0  0  0  0  0  0  0  0  0  0
   12.4562   -3.9469   23.5530 C   0  0  0  0  0  0  0  0  0  0  0  0
   13.1493   -5.1694   23.7657 O   0  0  0  0  0  0  0  0  0  0  0  0
   17.1821  -10.6594   11.8938 C   0  0  0  0  0  0  0  0  0  0  0  0
   17.1319   -9.9828   10.5511 C   0  0  0  0  0  0  0  0  0  0  0  0
   15.9306   -9.9066    9.8304 C   0  0  0  0  0  0  0  0  0  0  0  0
   14.6538  -10.4451   10.3832 C   0  0  0  0  0  0  0  0  0  0  0  0
   15.9115   -9.3110    8.6127 N   0  0  0  0  0  0  0  0  0  0  0  0
   17.0328   -8.7763    8.0678 C   0  0  0  0  0  0  0  0  0  0  0  0
   16.9616   -8.1801    6.8061 C   0  0  0  0  0  0  0  0  0  0  0  0
   18.1090   -7.6233    6.2445 C   0  0  0  0  0  0  0  0  0  0  0  0
   19.3116   -7.6657    6.9459 C   0  0  0  0  0  0  0  0  0  0  0  0
   20.5427   -7.0748    6.3599 C   0  0  0  0  0  0  0  0  0  0  0  0
   19.3504   -8.2679    8.2043 C   0  0  0  0  0  0  0  0  0  0  0  0
   18.2247   -8.8153    8.7544 N   0  0  0  0  0  0  0  0  0  0  0  0
   18.2840   -9.4046    9.9891 C   0  0  0  0  0  0  0  0  0  0  0  0
   19.3719   -9.4296   10.6318 O   0  0  0  0  0  0  0  0  0  0  0  0
 19 20  1  0  0  0
 20 13  1  0  0  0
 13 14  2  0  0  0
 14 15  1  0  0  0
 15 16  2  0  0  0
 16  9  1  0  0  0
 16 17  1  0  0  0
  9 10  1  0  0  0
 10 11  2  0  0  0
 10  8  1  0  0  0
  8  7  1  0  0  0
  7  1  1  0  0  0
  1  2  2  0  0  0
  2  3  1  0  0  0
  3  4  2  0  0  0
  4 21  1  0  0  0
  4  5  1  0  0  0
 21 22  1  0  0  0
 22 23  2  0  0  0
 23 24  1  0  0  0
 23 25  1  0  0  0
 25 26  2  0  0  0
 26 27  1  0  0  0
 27 28  2  0  0  0
 28 29  1  0  0  0
 29 30  1  0  0  0
 29 31  2  0  0  0
 31 32  1  0  0  0
 32 33  1  0  0  0
 32 26  1  0  0  0
 33 34  2  0  0  0
 33 22  1  0  0  0
  5  6  1  0  0  0
  5  1  1  0  0  0
 17 18  2  0  0  0
 18 13  1  0  0  0
  9 12  1  0  0  0
M  END
>  <minimizedAffinity>
-6.01533

>  <minimizedRMSD>
2.46944

$$$$
ChemDiv-G357-0016 MCULE-6965663724 MolPort-007-847-005 PubChem-20952932 ZINC000015771341


 29 31  0  0  0  0  0  0  0  0999 V2000
   17.0559   -9.7648   15.6267 C   0  0  0  0  0  0  0  0  0  0  0  0
   17.8392  -10.5921   16.1702 O   0  0  0  0  0  0  0  0  0  0  0  0
   16.1686   -8.9346   16.4569 C   0  0  0  0  0  0  0  0  0  0  0  0
   16.4442   -8.7351   17.8168 C   0  0  0  0  0  0  0  0  0  0  0  0
   15.5977   -7.9454   18.6002 C   0  0  0  0  0  0  0  0  0  0  0  0
   14.4669   -7.3455   18.0371 C   0  0  0  0  0  0  0  0  0  0  0  0
   14.1908   -7.5450   16.6764 C   0  0  0  0  0  0  0  0  0  0  0  0
   15.0362   -8.3342   15.8919 C   0  0  0  0  0  0  0  0  0  0  0  0
   13.6227   -6.5433   18.8738 N   0  0  0  0  0  0  0  0  0  0  0  0
   12.6127   -7.0138   19.7759 C   0  0  0  0  0  0  0  0  0  0  0  0
   12.3803   -8.2443   19.9135 O   0  0  0  0  0  0  0  0  0  0  0  0
   13.7499   -5.5683   18.8236 H   0  0  0  0  0  0  0  0  0  0  0  0
   11.8428   -6.0285   20.5873 C   0  0  0  0  0  0  0  0  0  0  0  0
   12.3498   -5.9931   22.0201 C   0  0  0  0  0  0  0  0  0  0  0  0
   13.7264   -5.3573   22.0776 C   0  0  0  0  0  0  0  0  0  0  0  0
   11.3941   -5.1811   22.8681 C   0  0  0  0  0  0  0  0  0  0  0  0
   17.0264   -9.6322   14.2367 O   0  0  0  0  0  0  0  0  0  0  0  0
   17.6534  -10.5739   13.3785 C   0  0  0  0  0  0  0  0  0  0  0  0
   17.3610   -9.1900    9.4063 N   0  0  0  0  0  0  0  0  0  0  0  0
   17.4100   -8.6802    8.1779 N   0  0  0  0  0  0  0  0  0  0  0  0
   18.5632   -8.0055    7.9543 C   0  0  0  0  0  0  0  0  0  0  0  0
   19.5858   -8.0184    9.3081 S   0  0  0  0  0  0  0  0  0  0  0  0
   18.4546   -8.9286   10.1531 C   0  0  0  0  0  0  0  0  0  0  0  0
   18.5689   -9.3712   11.4291 N   0  0  0  0  0  0  0  0  0  0  0  0
   17.5564  -10.1058   11.9708 C   0  0  0  0  0  0  0  0  0  0  0  0
   16.4026  -10.3862   11.2202 C   0  0  0  0  0  0  0  0  0  0  0  0
   16.3229   -9.9108    9.9065 C   0  0  0  0  0  0  0  0  0  0  0  0
   15.3034  -10.1485    9.2060 O   0  0  0  0  0  0  0  0  0  0  0  0
   18.8803   -7.3354    6.6666 C   0  0  0  0  0  0  0  0  0  0  0  0
 19 20  1  0  0  0
 20 21  2  0  0  0
 21 22  1  0  0  0
 22 23  1  0  0  0
 23 24  2  0  0  0
 24 25  1  0  0  0
 25 18  1  0  0  0
 18 17  1  0  0  0
 17  1  1  0  0  0
  1  2  2  0  0  0
  1  3  1  0  0  0
  3  4  2  0  0  0
  4  5  1  0  0  0
  5  6  2  0  0  0
  6  7  1  0  0  0
  7  8  2  0  0  0
  6  9  1  0  0  0
  9 10  1  0  0  0
 10 13  1  0  0  0
 13 14  1  0  0  0
 14 15  1  0  0  0
 14 16  1  0  0  0
 10 11  2  0  0  0
 25 26  2  0  0  0
 26 27  1  0  0  0
 27 28  2  0  0  0
 21 29  1  0  0  0
 23 19  1  0  0  0
  8  3  1  0  0  0
 27 19  1  0  0  0
  9 12  1  0  0  0
M  END
>  <minimizedAffinity>
-5.97487

>  <minimizedRMSD>
2.67887

$$$$
ChemDiv-G357-0505 MCULE-1946522130 MolPort-007-847-207 PubChem-20952997 ZINC000021016813


 31 34  0  0  0  0  0  0  0  0999 V2000
   17.6106  -10.0038   15.1526 C   0  0  0  0  0  0  0  0  0  0  0  0
   18.7000  -10.5666   15.4525 O   0  0  0  0  0  0  0  0  0  0  0  0
   16.8593   -9.2590   16.1759 C   0  0  0  0  0  0  0  0  0  0  0  0
   17.1242   -9.4539   17.5385 C   0  0  0  0  0  0  0  0  0  0  0  0
   16.4072   -8.7436   18.5056 C   0  0  0  0  0  0  0  0  0  0  0  0
   15.4182   -7.8309   18.1256 C   0  0  0  0  0  0  0  0  0  0  0  0
   15.1529   -7.6357   16.7621 C   0  0  0  0  0  0  0  0  0  0  0  0
   15.8688   -8.3451   15.7941 C   0  0  0  0  0  0  0  0  0  0  0  0
   14.7047   -7.1217   19.1476 N   0  0  0  0  0  0  0  0  0  0  0  0
   13.3902   -6.5558   19.0437 C   0  0  0  0  0  0  0  0  0  0  0  0
   12.7268   -6.6483   17.9765 O   0  0  0  0  0  0  0  0  0  0  0  0
   15.1650   -7.0115   20.0109 H   0  0  0  0  0  0  0  0  0  0  0  0
   12.8064   -5.8586   20.1943 C   0  0  0  0  0  0  0  0  0  0  0  0
   12.5167   -6.4308   21.4150 C   0  0  0  0  0  0  0  0  0  0  0  0
   11.9887   -5.3996   22.1721 C   0  0  0  0  0  0  0  0  0  0  0  0
   11.9923   -4.2742   21.3656 C   0  0  0  0  0  0  0  0  0  0  0  0
   12.4879   -4.5893   20.1933 O   0  0  0  0  0  0  0  0  0  0  0  0
   17.1123  -10.0839   13.8503 O   0  0  0  0  0  0  0  0  0  0  0  0
   17.6973  -10.9316   12.8728 C   0  0  0  0  0  0  0  0  0  0  0  0
   17.4390   -9.0405    9.1130 N   0  0  0  0  0  0  0  0  0  0  0  0
   17.4981   -8.3740    7.9626 N   0  0  0  0  0  0  0  0  0  0  0  0
   18.6673   -7.7031    7.8236 C   0  0  0  0  0  0  0  0  0  0  0  0
   19.6839   -7.9055    9.1679 S   0  0  0  0  0  0  0  0  0  0  0  0
   18.5361   -8.8995    9.8864 C   0  0  0  0  0  0  0  0  0  0  0  0
   18.6394   -9.5049   11.0946 N   0  0  0  0  0  0  0  0  0  0  0  0
   17.6120  -10.2838   11.5374 C   0  0  0  0  0  0  0  0  0  0  0  0
   16.4539  -10.4416   10.7580 C   0  0  0  0  0  0  0  0  0  0  0  0
   16.3856   -9.7985    9.5173 C   0  0  0  0  0  0  0  0  0  0  0  0
   15.3623   -9.9224    8.7934 O   0  0  0  0  0  0  0  0  0  0  0  0
   18.9810   -6.8417    6.6520 C   0  0  0  0  0  0  0  0  0  0  0  0
   20.0462   -7.5009    5.7989 C   0  0  0  0  0  0  0  0  0  0  0  0
 20 21  1  0  0  0
 21 22  2  0  0  0
 22 23  1  0  0  0
 23 24  1  0  0  0
 24 25  2  0  0  0
 25 26  1  0  0  0
 26 19  1  0  0  0
 19 18  1  0  0  0
 18  1  1  0  0  0
  1  2  2  0  0  0
  1  3  1  0  0  0
  3  4  2  0  0  0
  4  5  1  0  0  0
  5  6  2  0  0  0
  6  7  1  0  0  0
  7  8  2  0  0  0
  6  9  1  0  0  0
  9 10  1  0  0  0
 10 11  2  0  0  0
 10 13  1  0  0  0
 13 14  2  0  0  0
 14 15  1  0  0  0
 15 16  2  0  0  0
 16 17  1  0  0  0
 26 27  2  0  0  0
 27 28  1  0  0  0
 28 29  2  0  0  0
 22 30  1  0  0  0
 30 31  1  0  0  0
 24 20  1  0  0  0
  8  3  1  0  0  0
 17 13  1  0  0  0
 28 20  1  0  0  0
  9 12  1  0  0  0
M  END
>  <minimizedAffinity>
-5.96895

>  <minimizedRMSD>
2.11121

$$$$
ChemDiv-G357-1257 MCULE-9693178657 MolPort-007-847-464 PubChem-20953093 ZINC000015771974 ZINC15771974


 29 32  0  0  0  0  0  0  0  0999 V2000
   17.1854   -9.5967   13.8275 O   0  0  0  0  0  0  0  0  0  0  0  0
   17.7660   -9.3320   15.0699 C   0  0  0  0  0  0  0  0  0  0  0  0
   19.0097   -9.4719   15.2335 O   0  0  0  0  0  0  0  0  0  0  0  0
   15.2974   -8.0368   18.3249 C   0  0  0  0  0  0  0  0  0  0  0  0
   16.4705   -8.7568   18.5726 C   0  0  0  0  0  0  0  0  0  0  0  0
   17.2778   -9.1808   17.5132 C   0  0  0  0  0  0  0  0  0  0  0  0
   16.9203   -8.8884   16.1897 C   0  0  0  0  0  0  0  0  0  0  0  0
   15.7459   -8.1668   15.9406 C   0  0  0  0  0  0  0  0  0  0  0  0
   14.9398   -7.7436   17.0007 C   0  0  0  0  0  0  0  0  0  0  0  0
   13.4858   -6.6006   19.4344 C   0  0  0  0  0  0  0  0  0  0  0  0
   13.1945   -5.9739   18.3815 O   0  0  0  0  0  0  0  0  0  0  0  0
   14.4967   -7.6182   19.4385 N   0  0  0  0  0  0  0  0  0  0  0  0
   14.6575   -8.0769   20.2947 H   0  0  0  0  0  0  0  0  0  0  0  0
   13.3959   -6.9995   21.8653 C   0  0  0  0  0  0  0  0  0  0  0  0
   12.7511   -6.2887   20.6913 C   0  0  0  0  0  0  0  0  0  0  0  0
   17.7282  -10.5576   12.9339 C   0  0  0  0  0  0  0  0  0  0  0  0
   17.6248  -10.0539   11.5389 C   0  0  0  0  0  0  0  0  0  0  0  0
   16.4631  -10.3059   10.7905 C   0  0  0  0  0  0  0  0  0  0  0  0
   16.3775   -9.7966    9.4901 C   0  0  0  0  0  0  0  0  0  0  0  0
   15.3504  -10.0072    8.7919 O   0  0  0  0  0  0  0  0  0  0  0  0
   17.4183   -9.0729    8.9996 N   0  0  0  0  0  0  0  0  0  0  0  0
   17.4598   -8.5288    7.7858 N   0  0  0  0  0  0  0  0  0  0  0  0
   18.6210   -7.8639    7.5626 C   0  0  0  0  0  0  0  0  0  0  0  0
   19.6473   -7.9112    8.9165 S   0  0  0  0  0  0  0  0  0  0  0  0
   18.5192   -8.8392    9.7444 C   0  0  0  0  0  0  0  0  0  0  0  0
   18.6389   -9.3135   11.0084 N   0  0  0  0  0  0  0  0  0  0  0  0
   18.9108   -7.1123    6.3051 C   0  0  0  0  0  0  0  0  0  0  0  0
   20.3432   -7.3664    5.8735 C   0  0  0  0  0  0  0  0  0  0  0  0
   19.2091   -8.0841    5.1780 C   0  0  0  0  0  0  0  0  0  0  0  0
 14 15  1  0  0  0
 15 10  1  0  0  0
 10 11  2  0  0  0
 10 12  1  0  0  0
 12  4  1  0  0  0
  4  5  2  0  0  0
  5  6  1  0  0  0
  6  7  2  0  0  0
  7  8  1  0  0  0
  7  2  1  0  0  0
  8  9  2  0  0  0
  9  4  1  0  0  0
  2  3  2  0  0  0
  2  1  1  0  0  0
  1 16  1  0  0  0
 16 17  1  0  0  0
 17 18  2  0  0  0
 18 19  1  0  0  0
 19 20  2  0  0  0
 19 21  1  0  0  0
 21 22  1  0  0  0
 22 23  2  0  0  0
 23 24  1  0  0  0
 23 27  1  0  0  0
 24 25  1  0  0  0
 25 26  2  0  0  0
 25 21  1  0  0  0
 26 17  1  0  0  0
 27 28  1  0  0  0
 28 29  1  0  0  0
 29 27  1  0  0  0
 12 13  1  0  0  0
M  END
>  <minimizedAffinity>
-5.96085

>  <minimizedRMSD>
2.08779

$$$$
ChemDiv-G357-0748 MCULE-8185835706 MolPort-007-847-311 PubChem-20953038 ZINC000015771763 ZINC15771763


 29 31  0  0  0  0  0  0  0  0999 V2000
   17.1947  -10.5019   12.7972 C   0  0  0  0  0  0  0  0  0  0  0  0
   18.8273   -7.7131    7.6546 C   0  0  0  0  0  0  0  0  0  0  0  0
   17.6985   -8.4625    7.6709 N   0  0  0  0  0  0  0  0  0  0  0  0
   17.4802   -9.0147    8.8620 N   0  0  0  0  0  0  0  0  0  0  0  0
   18.4129   -8.7092    9.7883 C   0  0  0  0  0  0  0  0  0  0  0  0
   19.6033   -7.7012    9.1668 S   0  0  0  0  0  0  0  0  0  0  0  0
   18.3411   -9.1833   11.0561 N   0  0  0  0  0  0  0  0  0  0  0  0
   17.3039   -9.9968   11.4033 C   0  0  0  0  0  0  0  0  0  0  0  0
   16.3136  -10.3249   10.4626 C   0  0  0  0  0  0  0  0  0  0  0  0
   16.4234   -9.8139    9.1647 C   0  0  0  0  0  0  0  0  0  0  0  0
   15.5536  -10.0921    8.2970 O   0  0  0  0  0  0  0  0  0  0  0  0
   19.2844   -6.9635    6.4479 C   0  0  0  0  0  0  0  0  0  0  0  0
   19.1424   -8.2664    4.3506 C   0  0  0  0  0  0  0  0  0  0  0  0
   20.0496   -7.8672    5.4950 C   0  0  0  0  0  0  0  0  0  0  0  0
   21.2569   -7.1391    4.9362 C   0  0  0  0  0  0  0  0  0  0  0  0
   16.9364   -9.4175   13.6767 O   0  0  0  0  0  0  0  0  0  0  0  0
   17.5489   -9.3186   14.9280 C   0  0  0  0  0  0  0  0  0  0  0  0
   18.7689   -9.6128   15.0639 O   0  0  0  0  0  0  0  0  0  0  0  0
   16.7651   -8.8691   16.0897 C   0  0  0  0  0  0  0  0  0  0  0  0
   17.1627   -9.2039   17.3915 C   0  0  0  0  0  0  0  0  0  0  0  0
   16.4141   -8.7740   18.4909 C   0  0  0  0  0  0  0  0  0  0  0  0
   15.2606   -8.0055   18.3052 C   0  0  0  0  0  0  0  0  0  0  0  0
   14.8623   -7.6703   17.0026 C   0  0  0  0  0  0  0  0  0  0  0  0
   15.6099   -8.0994   15.9026 C   0  0  0  0  0  0  0  0  0  0  0  0
   14.5195   -7.5835   19.4584 N   0  0  0  0  0  0  0  0  0  0  0  0
   13.4388   -6.6426   19.4858 C   0  0  0  0  0  0  0  0  0  0  0  0
   12.7845   -6.3245   20.7813 C   0  0  0  0  0  0  0  0  0  0  0  0
   13.0328   -6.0801   18.4348 O   0  0  0  0  0  0  0  0  0  0  0  0
   14.7801   -7.9814   20.3204 H   0  0  0  0  0  0  0  0  0  0  0  0
 13 14  1  0  0  0
 14 15  1  0  0  0
 14 12  1  0  0  0
 12  2  1  0  0  0
  2  3  2  0  0  0
  3  4  1  0  0  0
  4  5  1  0  0  0
  5  6  1  0  0  0
  5  7  2  0  0  0
  6  2  1  0  0  0
  7  8  1  0  0  0
  8  1  1  0  0  0
  8  9  2  0  0  0
  1 16  1  0  0  0
 16 17  1  0  0  0
 17 18  2  0  0  0
 17 19  1  0  0  0
 19 20  2  0  0  0
 20 21  1  0  0  0
 21 22  2  0  0  0
 22 25  1  0  0  0
 22 23  1  0  0  0
 25 26  1  0  0  0
 26 27  1  0  0  0
 26 28  2  0  0  0
 23 24  2  0  0  0
 24 19  1  0  0  0
  9 10  1  0  0  0
 10 11  2  0  0  0
 10  4  1  0  0  0
 25 29  1  0  0  0
M  END
>  <minimizedAffinity>
-5.95988

>  <minimizedRMSD>
2.04796

$$$$
ChemDiv-G355-3263 MCULE-2852926023 MolPort-010-684-767 PubChem-50793991 ZINC000035428408 ZINC35428408


 28 30  0  0  0  0  0  0  0  0999 V2000
   17.3150  -10.0913   14.5600 C   0  0  0  0  0  0  0  0  0  0  0  0
   16.6575   -9.4014   15.5852 C   0  0  0  0  0  0  0  0  0  0  0  0
   16.6421   -9.8875   16.8991 C   0  0  0  0  0  0  0  0  0  0  0  0
   17.3007  -11.0816   17.1921 C   0  0  0  0  0  0  0  0  0  0  0  0
   17.9617  -11.7863   16.1860 C   0  0  0  0  0  0  0  0  0  0  0  0
   17.9778  -11.3080   14.8719 C   0  0  0  0  0  0  0  0  0  0  0  0
   18.7098  -12.1259   13.8648 C   0  0  0  0  0  0  0  0  0  0  0  0
   15.9821   -9.1848   17.9608 N   0  0  0  0  0  0  0  0  0  0  0  0
   15.1327   -8.0333   17.8313 C   0  0  0  0  0  0  0  0  0  0  0  0
   14.8034   -7.6101   16.6890 O   0  0  0  0  0  0  0  0  0  0  0  0
   16.1260   -9.5268   18.8727 H   0  0  0  0  0  0  0  0  0  0  0  0
   14.5564   -7.3810   19.0617 C   0  0  0  0  0  0  0  0  0  0  0  0
   15.6572   -6.8847   19.9834 C   0  0  0  0  0  0  0  0  0  0  0  0
   13.6892   -6.1917   18.6833 C   0  0  0  0  0  0  0  0  0  0  0  0
   13.7070   -8.3883   19.8122 C   0  0  0  0  0  0  0  0  0  0  0  0
   17.2658   -9.5121   13.2815 O   0  0  0  0  0  0  0  0  0  0  0  0
   18.3886   -9.2376   12.4561 C   0  0  0  0  0  0  0  0  0  0  0  0
   18.3316   -8.3238    5.2087 C   0  0  0  0  0  0  0  0  0  0  0  0
   18.1396   -8.6150    6.6540 C   0  0  0  0  0  0  0  0  0  0  0  0
   19.0403   -8.2755    7.6696 C   0  0  0  0  0  0  0  0  0  0  0  0
   18.3798   -8.7700    8.7776 C   0  0  0  0  0  0  0  0  0  0  0  0
   18.7838   -8.7325   10.0711 N   0  0  0  0  0  0  0  0  0  0  0  0
   17.9812   -9.2886   11.0275 C   0  0  0  0  0  0  0  0  0  0  0  0
   16.7504   -9.8796   10.6754 C   0  0  0  0  0  0  0  0  0  0  0  0
   16.3781   -9.8965    9.3258 C   0  0  0  0  0  0  0  0  0  0  0  0
   15.2945  -10.4234    8.9600 O   0  0  0  0  0  0  0  0  0  0  0  0
   17.2199   -9.3328    8.4269 N   0  0  0  0  0  0  0  0  0  0  0  0
   17.0844   -9.2351    7.1443 O   0  0  0  0  0  0  0  0  0  0  0  0
 18 19  1  0  0  0
 19 20  2  0  0  0
 20 21  1  0  0  0
 21 22  2  0  0  0
 22 23  1  0  0  0
 23 17  1  0  0  0
 23 24  2  0  0  0
 17 16  1  0  0  0
 16  1  1  0  0  0
  1  2  2  0  0  0
  2  3  1  0  0  0
  3  8  1  0  0  0
  3  4  2  0  0  0
  8  9  1  0  0  0
  9 10  2  0  0  0
  9 12  1  0  0  0
 12 13  1  0  0  0
 12 14  1  0  0  0
 12 15  1  0  0  0
  4  5  1  0  0  0
  5  6  2  0  0  0
  6  7  1  0  0  0
  6  1  1  0  0  0
 24 25  1  0  0  0
 25 26  2  0  0  0
 25 27  1  0  0  0
 27 28  1  0  0  0
 27 21  1  0  0  0
 28 19  1  0  0  0
  8 11  1  0  0  0
M  END
>  <minimizedAffinity>
-5.95154

>  <minimizedRMSD>
1.12908

$$$$
ChemDiv-D483-1478 MCULE-3160473070 MolPort-007-710-938 PubChem-20899068 ZINC000015859231


 35 39  0  0  0  0  0  0  0  0999 V2000
   16.4596   -9.6892   12.9962 C   0  0  0  0  0  0  0  0  0  0  0  0
   15.7832   -8.5246   13.0526 N   0  0  0  0  0  0  0  0  0  0  0  0
   16.0943   -7.9511   14.2072 N   0  0  0  0  0  0  0  0  0  0  0  0
   16.9561   -8.7764   14.8330 C   0  0  0  0  0  0  0  0  0  0  0  0
   17.2083   -9.8725   14.0984 N   0  0  0  0  0  0  0  0  0  0  0  0
   18.0738  -10.9938   14.4296 C   0  0  0  0  0  0  0  0  0  0  0  0
   16.4027  -10.6288   11.8330 C   0  0  0  0  0  0  0  0  0  0  0  0
   18.4166   -8.7485    9.2373 N   0  0  0  0  0  0  0  0  0  0  0  0
   19.6631   -8.2040    9.0945 C   0  0  0  0  0  0  0  0  0  0  0  0
   20.0378   -7.5720    7.9073 C   0  0  0  0  0  0  0  0  0  0  0  0
   19.1251   -7.4980    6.8574 C   0  0  0  0  0  0  0  0  0  0  0  0
   17.8546   -8.0515    7.0030 C   0  0  0  0  0  0  0  0  0  0  0  0
   17.5105   -8.6786    8.2037 C   0  0  0  0  0  0  0  0  0  0  0  0
   16.2710   -9.2122    8.3429 N   0  0  0  0  0  0  0  0  0  0  0  0
   15.8909   -9.8325    9.4872 C   0  0  0  0  0  0  0  0  0  0  0  0
   14.5050  -10.3769    9.5800 C   0  0  0  0  0  0  0  0  0  0  0  0
   16.7912   -9.9308   10.5590 C   0  0  0  0  0  0  0  0  0  0  0  0
   18.0692   -9.3638   10.4106 C   0  0  0  0  0  0  0  0  0  0  0  0
   18.8941   -9.4239   11.3668 O   0  0  0  0  0  0  0  0  0  0  0  0
   19.5043   -6.8298    5.5861 C   0  0  0  0  0  0  0  0  0  0  0  0
   17.6735   -8.4354   16.4407 S   0  0  0  0  0  0  0  0  0  0  0  0
   16.3099   -9.2425   17.3358 C   0  0  0  0  0  0  0  0  0  0  0  0
   15.4926   -8.2345   18.0667 C   0  0  0  0  0  0  0  0  0  0  0  0
   14.8521   -7.3725   17.4098 O   0  0  0  0  0  0  0  0  0  0  0  0
   15.4410   -8.2694   19.4990 N   0  0  0  0  0  0  0  0  0  0  0  0
   15.9531   -8.9841   19.9420 H   0  0  0  0  0  0  0  0  0  0  0  0
   14.7202   -7.3705   20.3529 C   0  0  0  0  0  0  0  0  0  0  0  0
   14.2772   -7.8413   21.6100 C   0  0  0  0  0  0  0  0  0  0  0  0
   13.5682   -6.9999   22.4875 C   0  0  0  0  0  0  0  0  0  0  0  0
   13.3234   -5.6949   22.0689 C   0  0  0  0  0  0  0  0  0  0  0  0
   13.7470   -5.2336   20.8654 C   0  0  0  0  0  0  0  0  0  0  0  0
   13.3703   -3.9137   20.7204 O   0  0  0  0  0  0  0  0  0  0  0  0
   12.6592   -3.5217   21.9037 C   0  0  0  0  0  0  0  0  0  0  0  0
   12.6592   -4.6873   22.7401 O   0  0  0  0  0  0  0  0  0  0  0  0
   14.4517   -6.0367   19.9725 C   0  0  0  0  0  0  0  0  0  0  0  0
  8  9  1  0  0  0
  9 10  2  0  0  0
 10 11  1  0  0  0
 11 12  2  0  0  0
 12 13  1  0  0  0
 13 14  2  0  0  0
 14 15  1  0  0  0
 15 16  1  0  0  0
 15 17  2  0  0  0
 17  7  1  0  0  0
  7  1  1  0  0  0
  1  2  2  0  0  0
  2  3  1  0  0  0
  3  4  2  0  0  0
  4 21  1  0  0  0
 21 22  1  0  0  0
 22 23  1  0  0  0
 23 24  2  0  0  0
 23 25  1  0  0  0
 25 27  1  0  0  0
 27 28  2  0  0  0
 28 29  1  0  0  0
 29 30  2  0  0  0
 30 31  1  0  0  0
 31 32  1  0  0  0
 32 33  1  0  0  0
 33 34  1  0  0  0
 31 35  2  0  0  0
  4  5  1  0  0  0
  5  6  1  0  0  0
 17 18  1  0  0  0
 18 19  2  0  0  0
 11 20  1  0  0  0
 13  8  1  0  0  0
  5  1  1  0  0  0
 18  8  1  0  0  0
 35 27  1  0  0  0
 34 30  1  0  0  0
 25 26  1  0  0  0
M  END
>  <minimizedAffinity>
-5.94615

>  <minimizedRMSD>
2.75296

$$$$
ChemDiv-D483-1637 MCULE-6118930803 MolPort-007-710-972 PubChem-20899101 ZINC000015859266


 36 40  0  0  0  0  0  0  0  0999 V2000
   16.5540   -9.7371   13.0870 C   0  0  0  0  0  0  0  0  0  0  0  0
   15.8458   -8.5944   13.1852 N   0  0  0  0  0  0  0  0  0  0  0  0
   16.1494   -8.0509   14.3565 N   0  0  0  0  0  0  0  0  0  0  0  0
   17.0348   -8.8735   14.9510 C   0  0  0  0  0  0  0  0  0  0  0  0
   17.3098   -9.9382   14.1797 N   0  0  0  0  0  0  0  0  0  0  0  0
   18.1960  -11.0538   14.4709 C   0  0  0  0  0  0  0  0  0  0  0  0
   16.5009  -10.6543   11.9071 C   0  0  0  0  0  0  0  0  0  0  0  0
   18.5360   -8.7121    9.3813 N   0  0  0  0  0  0  0  0  0  0  0  0
   19.7777   -8.1500    9.2802 C   0  0  0  0  0  0  0  0  0  0  0  0
   20.1771   -7.4959    8.1152 C   0  0  0  0  0  0  0  0  0  0  0  0
   19.2950   -7.4168    7.0416 C   0  0  0  0  0  0  0  0  0  0  0  0
   18.0276   -7.9876    7.1378 C   0  0  0  0  0  0  0  0  0  0  0  0
   17.0994   -7.8907    5.9747 C   0  0  0  0  0  0  0  0  0  0  0  0
   17.6544   -8.6403    8.3254 C   0  0  0  0  0  0  0  0  0  0  0  0
   16.4208   -9.2010    8.4319 N   0  0  0  0  0  0  0  0  0  0  0  0
   16.0242   -9.8398    9.5593 C   0  0  0  0  0  0  0  0  0  0  0  0
   14.6541  -10.4269    9.6057 C   0  0  0  0  0  0  0  0  0  0  0  0
   16.8980   -9.9301   10.6518 C   0  0  0  0  0  0  0  0  0  0  0  0
   18.1712   -9.3491   10.5376 C   0  0  0  0  0  0  0  0  0  0  0  0
   18.9762   -9.4183   11.5101 O   0  0  0  0  0  0  0  0  0  0  0  0
   17.7472   -8.5691   16.5677 S   0  0  0  0  0  0  0  0  0  0  0  0
   16.3246   -9.2890   17.4466 C   0  0  0  0  0  0  0  0  0  0  0  0
   15.4559   -8.2172   18.0090 C   0  0  0  0  0  0  0  0  0  0  0  0
   14.9398   -7.3735   17.2295 O   0  0  0  0  0  0  0  0  0  0  0  0
   15.2137   -8.1708   19.4215 N   0  0  0  0  0  0  0  0  0  0  0  0
   15.6154   -8.8889   19.9621 H   0  0  0  0  0  0  0  0  0  0  0  0
   14.4467   -7.1864   20.1280 C   0  0  0  0  0  0  0  0  0  0  0  0
   13.1516   -6.8222   19.7225 C   0  0  0  0  0  0  0  0  0  0  0  0
   12.4294   -5.8586   20.4338 C   0  0  0  0  0  0  0  0  0  0  0  0
   13.0010   -5.2526   21.5543 C   0  0  0  0  0  0  0  0  0  0  0  0
   14.3031   -5.5901   21.9473 C   0  0  0  0  0  0  0  0  0  0  0  0
   14.8709   -4.9411   23.0469 O   0  0  0  0  0  0  0  0  0  0  0  0
   14.2738   -3.7608   23.5886 C   0  0  0  0  0  0  0  0  0  0  0  0
   12.7487   -3.8897   23.5855 C   0  0  0  0  0  0  0  0  0  0  0  0
   12.2897   -4.3065   22.2974 O   0  0  0  0  0  0  0  0  0  0  0  0
   15.0181   -6.5624   21.2433 C   0  0  0  0  0  0  0  0  0  0  0  0
  8  9  1  0  0  0
  9 10  2  0  0  0
 10 11  1  0  0  0
 11 12  2  0  0  0
 12 13  1  0  0  0
 12 14  1  0  0  0
 14 15  2  0  0  0
 15 16  1  0  0  0
 16 17  1  0  0  0
 16 18  2  0  0  0
 18  7  1  0  0  0
  7  1  1  0  0  0
  1  2  2  0  0  0
  2  3  1  0  0  0
  3  4  2  0  0  0
  4 21  1  0  0  0
 21 22  1  0  0  0
 22 23  1  0  0  0
 23 24  2  0  0  0
 23 25  1  0  0  0
 25 27  1  0  0  0
 27 28  2  0  0  0
 28 29  1  0  0  0
 29 30  2  0  0  0
 30 31  1  0  0  0
 31 32  1  0  0  0
 32 33  1  0  0  0
 33 34  1  0  0  0
 34 35  1  0  0  0
 31 36  2  0  0  0
  4  5  1  0  0  0
  5  6  1  0  0  0
 18 19  1  0  0  0
 19 20  2  0  0  0
 14  8  1  0  0  0
  5  1  1  0  0  0
 19  8  1  0  0  0
 36 27  1  0  0  0
 35 30  1  0  0  0
 25 26  1  0  0  0
M  END
>  <minimizedAffinity>
-5.94446

>  <minimizedRMSD>
3.47477

$$$$
ChemDiv-D483-1633 MCULE-7539821025 MolPort-007-710-969 PubChem-20899098 ZINC000015859263 ZINC15859263


 35 38  0  0  0  0  0  0  0  0999 V2000
   17.0317  -11.0952   15.9738 C   0  0  0  0  0  0  0  0  0  0  0  0
   16.5892   -9.8874   15.2954 N   0  0  0  0  0  0  0  0  0  0  0  0
   16.4416   -9.6782   13.9761 C   0  0  0  0  0  0  0  0  0  0  0  0
   16.0275   -8.4206   13.7234 N   0  0  0  0  0  0  0  0  0  0  0  0
   15.9055   -7.8107   14.8951 N   0  0  0  0  0  0  0  0  0  0  0  0
   16.2471   -8.7081   15.8396 C   0  0  0  0  0  0  0  0  0  0  0  0
   16.6947  -10.7034   12.9170 C   0  0  0  0  0  0  0  0  0  0  0  0
   17.0100  -10.0456   11.6033 C   0  0  0  0  0  0  0  0  0  0  0  0
   16.0342   -9.9141   10.6054 C   0  0  0  0  0  0  0  0  0  0  0  0
   14.6534  -10.4460   10.7898 C   0  0  0  0  0  0  0  0  0  0  0  0
   16.3438   -9.2980    9.4389 N   0  0  0  0  0  0  0  0  0  0  0  0
   17.5847   -8.7955    9.2042 C   0  0  0  0  0  0  0  0  0  0  0  0
   18.5653   -8.9081   10.1650 N   0  0  0  0  0  0  0  0  0  0  0  0
   19.8151   -8.4051    9.9347 C   0  0  0  0  0  0  0  0  0  0  0  0
   20.1236   -7.7717    8.7312 C   0  0  0  0  0  0  0  0  0  0  0  0
   19.1410   -7.6522    7.7526 C   0  0  0  0  0  0  0  0  0  0  0  0
   17.8648   -8.1624    7.9809 C   0  0  0  0  0  0  0  0  0  0  0  0
   16.8282   -8.0230    6.9178 C   0  0  0  0  0  0  0  0  0  0  0  0
   18.2909   -9.5255   11.3565 C   0  0  0  0  0  0  0  0  0  0  0  0
   19.1873   -9.6328   12.2417 O   0  0  0  0  0  0  0  0  0  0  0  0
   16.2460   -8.3551   17.5947 S   0  0  0  0  0  0  0  0  0  0  0  0
   14.4959   -7.8480   17.5646 C   0  0  0  0  0  0  0  0  0  0  0  0
   14.0228   -7.3029   18.8761 C   0  0  0  0  0  0  0  0  0  0  0  0
   12.7968   -7.0493   19.0114 O   0  0  0  0  0  0  0  0  0  0  0  0
   14.9427   -7.0772   19.9556 N   0  0  0  0  0  0  0  0  0  0  0  0
   15.8857   -7.3030   19.7848 H   0  0  0  0  0  0  0  0  0  0  0  0
   14.6333   -6.5577   21.2558 C   0  0  0  0  0  0  0  0  0  0  0  0
   15.1048   -7.2394   22.3819 C   0  0  0  0  0  0  0  0  0  0  0  0
   14.8247   -6.7638   23.6661 C   0  0  0  0  0  0  0  0  0  0  0  0
   14.0675   -5.5969   23.8423 C   0  0  0  0  0  0  0  0  0  0  0  0
   13.5952   -4.9136   22.7122 C   0  0  0  0  0  0  0  0  0  0  0  0
   13.8758   -5.3902   21.4289 C   0  0  0  0  0  0  0  0  0  0  0  0
   13.7751   -5.0999   25.2007 C   0  0  0  0  0  0  0  0  0  0  0  0
   12.4441   -5.3271   25.8344 C   0  0  0  0  0  0  0  0  0  0  0  0
   14.6544   -4.4717   25.8486 O   0  0  0  0  0  0  0  0  0  0  0  0
  1  2  1  0  0  0
  2  3  1  0  0  0
  3  7  1  0  0  0
  3  4  2  0  0  0
  7  8  1  0  0  0
  8  9  2  0  0  0
  9 10  1  0  0  0
  9 11  1  0  0  0
 11 12  2  0  0  0
 12 13  1  0  0  0
 13 14  1  0  0  0
 13 19  1  0  0  0
 14 15  2  0  0  0
 15 16  1  0  0  0
 16 17  2  0  0  0
 17 18  1  0  0  0
 17 12  1  0  0  0
 19 20  2  0  0  0
 19  8  1  0  0  0
  4  5  1  0  0  0
  5  6  2  0  0  0
  6 21  1  0  0  0
  6  2  1  0  0  0
 21 22  1  0  0  0
 22 23  1  0  0  0
 23 24  2  0  0  0
 23 25  1  0  0  0
 25 27  1  0  0  0
 27 28  2  0  0  0
 28 29  1  0  0  0
 29 30  2  0  0  0
 30 31  1  0  0  0
 30 33  1  0  0  0
 31 32  2  0  0  0
 32 27  1  0  0  0
 33 34  1  0  0  0
 33 35  2  0  0  0
 25 26  1  0  0  0
M  END
>  <minimizedAffinity>
-5.94006

>  <minimizedRMSD>
2.71692

$$$$
ChemDiv-G357-3493 MCULE-2146197135 MolPort-007-848-008 PubChem-20953225 ZINC000021016988


 32 35  0  0  0  0  0  0  0  0999 V2000
   17.6706   -9.5697   14.4234 C   0  0  0  0  0  0  0  0  0  0  0  0
   18.6884  -10.2909   14.6156 O   0  0  0  0  0  0  0  0  0  0  0  0
   16.9163   -9.0389   15.5701 C   0  0  0  0  0  0  0  0  0  0  0  0
   15.8802   -8.1188   15.3650 C   0  0  0  0  0  0  0  0  0  0  0  0
   15.1612   -7.6124   16.4513 C   0  0  0  0  0  0  0  0  0  0  0  0
   15.4694   -8.0194   17.7579 C   0  0  0  0  0  0  0  0  0  0  0  0
   16.5049   -8.9372   17.9615 C   0  0  0  0  0  0  0  0  0  0  0  0
   17.2243   -9.4452   16.8760 C   0  0  0  0  0  0  0  0  0  0  0  0
   14.7564   -7.5195   18.8974 N   0  0  0  0  0  0  0  0  0  0  0  0
   13.5193   -6.7942   18.8861 C   0  0  0  0  0  0  0  0  0  0  0  0
   12.9240   -6.5430   17.8037 O   0  0  0  0  0  0  0  0  0  0  0  0
   15.1581   -7.6923   19.7795 H   0  0  0  0  0  0  0  0  0  0  0  0
   12.9423   -6.3410   20.1559 C   0  0  0  0  0  0  0  0  0  0  0  0
   12.6392   -5.0347   20.4787 C   0  0  0  0  0  0  0  0  0  0  0  0
   12.1253   -5.0980   21.7622 C   0  0  0  0  0  0  0  0  0  0  0  0
   12.1503   -6.4317   22.1333 C   0  0  0  0  0  0  0  0  0  0  0  0
   12.6446   -7.1411   21.1476 O   0  0  0  0  0  0  0  0  0  0  0  0
   17.2556   -9.2702   13.1239 O   0  0  0  0  0  0  0  0  0  0  0  0
   16.8039  -10.2765   12.2293 C   0  0  0  0  0  0  0  0  0  0  0  0
   17.6897   -9.1135    8.2743 N   0  0  0  0  0  0  0  0  0  0  0  0
   18.0756   -8.6440    7.0903 N   0  0  0  0  0  0  0  0  0  0  0  0
   19.0854   -7.7475    7.2037 C   0  0  0  0  0  0  0  0  0  0  0  0
   19.5350   -7.4926    8.8204 S   0  0  0  0  0  0  0  0  0  0  0  0
   18.3731   -8.5989    9.3180 C   0  0  0  0  0  0  0  0  0  0  0  0
   18.1062   -8.9652   10.5954 N   0  0  0  0  0  0  0  0  0  0  0  0
   17.1258   -9.8822   10.8325 C   0  0  0  0  0  0  0  0  0  0  0  0
   16.3913  -10.4278    9.7666 C   0  0  0  0  0  0  0  0  0  0  0  0
   16.6974  -10.0230    8.4625 C   0  0  0  0  0  0  0  0  0  0  0  0
   16.0594  -10.4960    7.4847 O   0  0  0  0  0  0  0  0  0  0  0  0
   19.6891   -7.0400    6.0384 C   0  0  0  0  0  0  0  0  0  0  0  0
   20.0338   -8.0192    4.9277 C   0  0  0  0  0  0  0  0  0  0  0  0
   19.0255   -7.9219    3.7983 C   0  0  0  0  0  0  0  0  0  0  0  0
 20 21  1  0  0  0
 21 22  2  0  0  0
 22 23  1  0  0  0
 23 24  1  0  0  0
 24 25  2  0  0  0
 25 26  1  0  0  0
 26 19  1  0  0  0
 19 18  1  0  0  0
 18  1  1  0  0  0
  1  2  2  0  0  0
  1  3  1  0  0  0
  3  4  2  0  0  0
  4  5  1  0  0  0
  5  6  2  0  0  0
  6  7  1  0  0  0
  7  8  2  0  0  0
  6  9  1  0  0  0
  9 10  1  0  0  0
 10 11  2  0  0  0
 10 13  1  0  0  0
 13 14  2  0  0  0
 14 15  1  0  0  0
 15 16  2  0  0  0
 16 17  1  0  0  0
 26 27  2  0  0  0
 27 28  1  0  0  0
 28 29  2  0  0  0
 22 30  1  0  0  0
 30 31  1  0  0  0
 31 32  1  0  0  0
 24 20  1  0  0  0
  8  3  1  0  0  0
 17 13  1  0  0  0
 28 20  1  0  0  0
  9 12  1  0  0  0
M  END
>  <minimizedAffinity>
-5.93034

>  <minimizedRMSD>
2.09642

$$$$
ChemDiv-D483-1455 MCULE-6312390096 MolPort-007-710-927 PubChem-20899057


 32 35  0  0  0  0  0  0  0  0999 V2000
   16.3734   -9.6692   12.9532 C   0  0  0  0  0  0  0  0  0  0  0  0
   15.8142   -8.4496   13.0829 N   0  0  0  0  0  0  0  0  0  0  0  0
   15.9890   -8.0760   14.3437 N   0  0  0  0  0  0  0  0  0  0  0  0
   16.6493   -9.0757   14.9592 C   0  0  0  0  0  0  0  0  0  0  0  0
   16.9062  -10.0875   14.1138 N   0  0  0  0  0  0  0  0  0  0  0  0
   17.5789  -11.3456   14.3963 C   0  0  0  0  0  0  0  0  0  0  0  0
   16.3954  -10.4472   11.6760 C   0  0  0  0  0  0  0  0  0  0  0  0
   17.5912   -8.9202    8.4313 N   0  0  0  0  0  0  0  0  0  0  0  0
   17.1323   -8.7124    7.1603 C   0  0  0  0  0  0  0  0  0  0  0  0
   17.9231   -8.0641    6.2099 C   0  0  0  0  0  0  0  0  0  0  0  0
   19.1960   -7.6253    6.5673 C   0  0  0  0  0  0  0  0  0  0  0  0
   19.6638   -7.8369    7.8626 C   0  0  0  0  0  0  0  0  0  0  0  0
   18.8478   -8.4886    8.7904 C   0  0  0  0  0  0  0  0  0  0  0  0
   19.3074   -8.6919   10.0501 N   0  0  0  0  0  0  0  0  0  0  0  0
   18.5529   -9.3177   10.9863 C   0  0  0  0  0  0  0  0  0  0  0  0
   19.1216   -9.5136   12.3508 C   0  0  0  0  0  0  0  0  0  0  0  0
   17.2673   -9.7715   10.6557 C   0  0  0  0  0  0  0  0  0  0  0  0
   16.7993   -9.5577    9.3486 C   0  0  0  0  0  0  0  0  0  0  0  0
   15.6445   -9.9583    9.0267 O   0  0  0  0  0  0  0  0  0  0  0  0
   20.0526   -6.9329    5.5699 C   0  0  0  0  0  0  0  0  0  0  0  0
   17.1190   -9.0431   16.6887 S   0  0  0  0  0  0  0  0  0  0  0  0
   15.3915   -9.0212   17.2616 C   0  0  0  0  0  0  0  0  0  0  0  0
   15.1416   -7.8387   18.1331 C   0  0  0  0  0  0  0  0  0  0  0  0
   14.3192   -6.9590   17.7632 O   0  0  0  0  0  0  0  0  0  0  0  0
   15.8338   -7.7114   19.3770 N   0  0  0  0  0  0  0  0  0  0  0  0
   16.5009   -8.3941   19.6182 H   0  0  0  0  0  0  0  0  0  0  0  0
   15.5925   -6.6131   20.3019 C   0  0  0  0  0  0  0  0  0  0  0  0
   14.5575   -7.0113   21.3427 C   0  0  0  0  0  0  0  0  0  0  0  0
   13.1935   -6.4644   20.9859 C   0  0  0  0  0  0  0  0  0  0  0  0
   12.6219   -6.0364   22.3032 C   0  0  0  0  0  0  0  0  0  0  0  0
   13.7163   -6.3529   23.2954 C   0  0  0  0  0  0  0  0  0  0  0  0
   14.9224   -6.4961   22.5944 O   0  0  0  0  0  0  0  0  0  0  0  0
  8  9  1  0  0  0
  9 10  2  0  0  0
 10 11  1  0  0  0
 11 12  2  0  0  0
 12 13  1  0  0  0
 13 14  2  0  0  0
 14 15  1  0  0  0
 15 16  1  0  0  0
 15 17  2  0  0  0
 17  7  1  0  0  0
  7  1  1  0  0  0
  1  2  2  0  0  0
  2  3  1  0  0  0
  3  4  2  0  0  0
  4 21  1  0  0  0
 21 22  1  0  0  0
 22 23  1  0  0  0
 23 24  2  0  0  0
 23 25  1  0  0  0
 25 27  1  0  0  0
 27 28  1  0  0  0
 28 29  1  0  0  0
 29 30  1  0  0  0
 30 31  1  0  0  0
 31 32  1  0  0  0
  4  5  1  0  0  0
  5  6  1  0  0  0
 17 18  1  0  0  0
 18 19  2  0  0  0
 11 20  1  0  0  0
 13  8  1  0  0  0
  5  1  1  0  0  0
 18  8  1  0  0  0
 32 28  1  0  0  0
 25 26  1  0  0  0
M  END
>  <minimizedAffinity>
-5.92804

>  <minimizedRMSD>
2.25993

$$$$
ChemDiv-D483-1262 MCULE-6345959480 MolPort-007-710-901 PubChem-20899031


 33 36  0  0  0  0  0  0  0  0999 V2000
   15.9493   -9.4207   14.0731 C   0  0  0  0  0  0  0  0  0  0  0  0
   15.5539   -8.5143   13.1586 N   0  0  0  0  0  0  0  0  0  0  0  0
   16.4440   -8.5463   12.1755 N   0  0  0  0  0  0  0  0  0  0  0  0
   17.3628   -9.4750   12.5076 C   0  0  0  0  0  0  0  0  0  0  0  0
   17.0801  -10.0390   13.6940 N   0  0  0  0  0  0  0  0  0  0  0  0
   17.8123  -11.0826   14.3930 C   0  0  0  0  0  0  0  0  0  0  0  0
   15.0649   -9.7467   15.5967 S   0  0  0  0  0  0  0  0  0  0  0  0
   17.2915   -9.2641   17.1226 C   0  0  0  0  0  0  0  0  0  0  0  0
   16.0759   -8.5657   16.5416 C   0  0  0  0  0  0  0  0  0  0  0  0
   15.2651   -7.9447   17.6283 C   0  0  0  0  0  0  0  0  0  0  0  0
   14.2087   -7.3304   17.3254 O   0  0  0  0  0  0  0  0  0  0  0  0
   15.6931   -8.0549   18.9942 N   0  0  0  0  0  0  0  0  0  0  0  0
   16.5375   -8.5351   19.1545 H   0  0  0  0  0  0  0  0  0  0  0  0
   15.0186   -7.5384   20.1494 C   0  0  0  0  0  0  0  0  0  0  0  0
   15.7707   -6.8843   21.1318 C   0  0  0  0  0  0  0  0  0  0  0  0
   15.1488   -6.3697   22.2733 C   0  0  0  0  0  0  0  0  0  0  0  0
   13.7685   -6.5078   22.4397 C   0  0  0  0  0  0  0  0  0  0  0  0
   13.0102   -7.1602   21.4643 C   0  0  0  0  0  0  0  0  0  0  0  0
   13.6329   -7.6738   20.3233 C   0  0  0  0  0  0  0  0  0  0  0  0
   18.5605   -9.7988   11.6732 C   0  0  0  0  0  0  0  0  0  0  0  0
   18.2944   -9.4946   10.2261 C   0  0  0  0  0  0  0  0  0  0  0  0
   17.1224   -9.9421    9.5984 C   0  0  0  0  0  0  0  0  0  0  0  0
   16.1123  -10.7616   10.3288 C   0  0  0  0  0  0  0  0  0  0  0  0
   16.8935   -9.6317    8.2990 N   0  0  0  0  0  0  0  0  0  0  0  0
   17.7749   -8.8909    7.5824 C   0  0  0  0  0  0  0  0  0  0  0  0
   17.4919   -8.5968    6.2463 C   0  0  0  0  0  0  0  0  0  0  0  0
   18.3926   -7.8334    5.5060 C   0  0  0  0  0  0  0  0  0  0  0  0
   19.5636   -7.3740    6.1044 C   0  0  0  0  0  0  0  0  0  0  0  0
   20.5327   -6.5584    5.3275 C   0  0  0  0  0  0  0  0  0  0  0  0
   19.8187   -7.6858    7.4404 C   0  0  0  0  0  0  0  0  0  0  0  0
   18.9348   -8.4346    8.1662 N   0  0  0  0  0  0  0  0  0  0  0  0
   19.2023   -8.7281    9.4766 C   0  0  0  0  0  0  0  0  0  0  0  0
   20.2658   -8.3138   10.0194 O   0  0  0  0  0  0  0  0  0  0  0  0
  9  8  1  0  0  0
  9  7  1  0  0  0
  9 10  1  0  0  0
  7  1  1  0  0  0
  1  2  2  0  0  0
  2  3  1  0  0  0
  3  4  2  0  0  0
  4 20  1  0  0  0
  4  5  1  0  0  0
 20 21  1  0  0  0
 21 22  2  0  0  0
 22 23  1  0  0  0
 22 24  1  0  0  0
 24 25  2  0  0  0
 25 26  1  0  0  0
 26 27  2  0  0  0
 27 28  1  0  0  0
 28 29  1  0  0  0
 28 30  2  0  0  0
 30 31  1  0  0  0
 31 32  1  0  0  0
 31 25  1  0  0  0
 32 33  2  0  0  0
 32 21  1  0  0  0
  5  6  1  0  0  0
  5  1  1  0  0  0
 10 11  2  0  0  0
 10 12  1  0  0  0
 12 14  1  0  0  0
 14 15  2  0  0  0
 15 16  1  0  0  0
 16 17  2  0  0  0
 17 18  1  0  0  0
 18 19  2  0  0  0
 19 14  1  0  0  0
 12 13  1  0  0  0
M  END
>  <minimizedAffinity>
-5.90212

>  <minimizedRMSD>
2.35429

$$$$
ChemDiv-G357-1246 MCULE-1651821455 MolPort-007-847-457 PubChem-20953090 ZINC000015771970 ZINC15771970


 28 31  0  0  0  0  0  0  0  0999 V2000
   17.2231   -9.6244   13.8061 O   0  0  0  0  0  0  0  0  0  0  0  0
   17.7948   -9.3627   15.0533 C   0  0  0  0  0  0  0  0  0  0  0  0
   19.0375   -9.5030   15.2253 O   0  0  0  0  0  0  0  0  0  0  0  0
   15.3040   -8.0740   18.2939 C   0  0  0  0  0  0  0  0  0  0  0  0
   16.4426   -8.8467   18.5437 C   0  0  0  0  0  0  0  0  0  0  0  0
   17.2571   -9.2687   17.4891 C   0  0  0  0  0  0  0  0  0  0  0  0
   16.9413   -8.9216   16.1681 C   0  0  0  0  0  0  0  0  0  0  0  0
   15.8012   -8.1477   15.9167 C   0  0  0  0  0  0  0  0  0  0  0  0
   14.9878   -7.7265   16.9721 C   0  0  0  0  0  0  0  0  0  0  0  0
   12.7332   -6.3542   20.6433 C   0  0  0  0  0  0  0  0  0  0  0  0
   13.4764   -6.6511   19.3915 C   0  0  0  0  0  0  0  0  0  0  0  0
   13.1997   -6.0109   18.3430 O   0  0  0  0  0  0  0  0  0  0  0  0
   14.4937   -7.6605   19.4026 N   0  0  0  0  0  0  0  0  0  0  0  0
   14.6527   -8.1174   20.2601 H   0  0  0  0  0  0  0  0  0  0  0  0
   17.7847  -10.5674   12.9051 C   0  0  0  0  0  0  0  0  0  0  0  0
   17.6680  -10.0565   11.5138 C   0  0  0  0  0  0  0  0  0  0  0  0
   16.4987  -10.3035   10.7755 C   0  0  0  0  0  0  0  0  0  0  0  0
   16.4009   -9.7875    9.4786 C   0  0  0  0  0  0  0  0  0  0  0  0
   15.3668   -9.9936    8.7896 O   0  0  0  0  0  0  0  0  0  0  0  0
   17.4375   -9.0623    8.9816 N   0  0  0  0  0  0  0  0  0  0  0  0
   17.4676   -8.5122    7.7702 N   0  0  0  0  0  0  0  0  0  0  0  0
   18.6272   -7.8472    7.5389 C   0  0  0  0  0  0  0  0  0  0  0  0
   19.6668   -7.9025    8.8824 S   0  0  0  0  0  0  0  0  0  0  0  0
   18.5459   -8.8336    9.7167 C   0  0  0  0  0  0  0  0  0  0  0  0
   18.6776   -9.3144   10.9769 N   0  0  0  0  0  0  0  0  0  0  0  0
   18.9056   -7.0898    6.2823 C   0  0  0  0  0  0  0  0  0  0  0  0
   20.3288   -7.3547    5.8276 C   0  0  0  0  0  0  0  0  0  0  0  0
   19.1774   -8.0564    5.1443 C   0  0  0  0  0  0  0  0  0  0  0  0
 10 11  1  0  0  0
 11 12  2  0  0  0
 11 13  1  0  0  0
 13  4  1  0  0  0
  4  5  2  0  0  0
  5  6  1  0  0  0
  6  7  2  0  0  0
  7  8  1  0  0  0
  7  2  1  0  0  0
  8  9  2  0  0  0
  9  4  1  0  0  0
  2  3  2  0  0  0
  2  1  1  0  0  0
  1 15  1  0  0  0
 15 16  1  0  0  0
 16 17  2  0  0  0
 17 18  1  0  0  0
 18 19  2  0  0  0
 18 20  1  0  0  0
 20 21  1  0  0  0
 21 22  2  0  0  0
 22 23  1  0  0  0
 22 26  1  0  0  0
 23 24  1  0  0  0
 24 25  2  0  0  0
 24 20  1  0  0  0
 25 16  1  0  0  0
 26 27  1  0  0  0
 27 28  1  0  0  0
 28 26  1  0  0  0
 13 14  1  0  0  0
M  END
>  <minimizedAffinity>
-5.90104

>  <minimizedRMSD>
2.00620

$$$$
ChemDiv-C679-4352 MCULE-8641716698 MolPort-007-655-837 PubChem-20874240 ZINC000013368051


 25 27  0  0  0  0  0  0  0  0999 V2000
   17.8870  -10.3724   12.7984 C   0  0  0  0  0  0  0  0  0  0  0  0
   17.4864   -8.9599    8.8457 N   0  0  0  0  0  0  0  0  0  0  0  0
   17.4982   -8.4350    7.6228 N   0  0  0  0  0  0  0  0  0  0  0  0
   18.6331   -7.7352    7.3811 C   0  0  0  0  0  0  0  0  0  0  0  0
   19.6775   -7.7294    8.7194 S   0  0  0  0  0  0  0  0  0  0  0  0
   18.5872   -8.6788    9.5745 C   0  0  0  0  0  0  0  0  0  0  0  0
   18.7358   -9.1293   10.8442 N   0  0  0  0  0  0  0  0  0  0  0  0
   17.7518   -9.8933   11.3976 C   0  0  0  0  0  0  0  0  0  0  0  0
   16.5911  -10.1947   10.6661 C   0  0  0  0  0  0  0  0  0  0  0  0
   16.4752   -9.7093    9.3588 C   0  0  0  0  0  0  0  0  0  0  0  0
   15.4482   -9.9643    8.6755 O   0  0  0  0  0  0  0  0  0  0  0  0
   18.8898   -7.0086    6.1086 C   0  0  0  0  0  0  0  0  0  0  0  0
   20.2610   -7.3726    5.5754 C   0  0  0  0  0  0  0  0  0  0  0  0
   17.0587   -9.5925   13.6508 O   0  0  0  0  0  0  0  0  0  0  0  0
   17.0123   -9.7791   15.0346 C   0  0  0  0  0  0  0  0  0  0  0  0
   17.5332  -10.9333   15.6406 C   0  0  0  0  0  0  0  0  0  0  0  0
   17.4705  -11.0884   17.0274 C   0  0  0  0  0  0  0  0  0  0  0  0
   16.8877  -10.0928   17.8160 C   0  0  0  0  0  0  0  0  0  0  0  0
   16.3645   -8.9376   17.2258 C   0  0  0  0  0  0  0  0  0  0  0  0
   16.4309   -8.7884   15.8321 C   0  0  0  0  0  0  0  0  0  0  0  0
   15.7745   -7.9387   18.0691 N   0  0  0  0  0  0  0  0  0  0  0  0
   14.3796   -7.6319   18.1872 C   0  0  0  0  0  0  0  0  0  0  0  0
   13.9479   -6.5573   19.1180 C   0  0  0  0  0  0  0  0  0  0  0  0
   13.5128   -8.2541   17.5184 O   0  0  0  0  0  0  0  0  0  0  0  0
   16.3915   -7.4091   18.6241 H   0  0  0  0  0  0  0  0  0  0  0  0
  2  3  1  0  0  0
  3  4  2  0  0  0
  4  5  1  0  0  0
  5  6  1  0  0  0
  6  7  2  0  0  0
  7  8  1  0  0  0
  8  1  1  0  0  0
  1 14  1  0  0  0
 14 15  1  0  0  0
 15 16  2  0  0  0
 16 17  1  0  0  0
 17 18  2  0  0  0
 18 19  1  0  0  0
 19 20  2  0  0  0
 19 21  1  0  0  0
 21 22  1  0  0  0
 22 23  1  0  0  0
 22 24  2  0  0  0
  8  9  2  0  0  0
  9 10  1  0  0  0
 10 11  2  0  0  0
  4 12  1  0  0  0
 12 13  1  0  0  0
  6  2  1  0  0  0
 20 15  1  0  0  0
 10  2  1  0  0  0
 21 25  1  0  0  0
M  END
>  <minimizedAffinity>
-5.87213

>  <minimizedRMSD>
1.11100

$$$$
ChemDiv-D483-1287 MCULE-8975400730 MolPort-007-710-905 PubChem-20899035 ZINC000015859196 ZINC15859196


 34 37  0  0  0  0  0  0  0  0999 V2000
   17.2111   -8.9375   14.6995 C   0  0  0  0  0  0  0  0  0  0  0  0
   16.2250   -8.2782   14.0610 N   0  0  0  0  0  0  0  0  0  0  0  0
   16.0577   -8.8773   12.8890 N   0  0  0  0  0  0  0  0  0  0  0  0
   16.9425   -9.8928   12.8365 C   0  0  0  0  0  0  0  0  0  0  0  0
   17.6854   -9.9511   13.9558 N   0  0  0  0  0  0  0  0  0  0  0  0
   18.7177  -10.9142   14.3065 C   0  0  0  0  0  0  0  0  0  0  0  0
   17.7879   -8.5169   16.3440 S   0  0  0  0  0  0  0  0  0  0  0  0
   16.3238   -9.2359   17.1539 C   0  0  0  0  0  0  0  0  0  0  0  0
   15.5379   -8.1443   19.2910 N   0  0  0  0  0  0  0  0  0  0  0  0
   15.5408   -8.1815   17.8575 C   0  0  0  0  0  0  0  0  0  0  0  0
   14.9047   -7.3303   17.1802 O   0  0  0  0  0  0  0  0  0  0  0  0
   16.0958   -8.8120   19.7516 H   0  0  0  0  0  0  0  0  0  0  0  0
   13.4113   -5.4874   21.8242 C   0  0  0  0  0  0  0  0  0  0  0  0
   14.7055   -5.9043   22.1513 C   0  0  0  0  0  0  0  0  0  0  0  0
   15.3978   -6.7759   21.3039 C   0  0  0  0  0  0  0  0  0  0  0  0
   14.8055   -7.2340   20.1219 C   0  0  0  0  0  0  0  0  0  0  0  0
   13.5103   -6.8048   19.7918 C   0  0  0  0  0  0  0  0  0  0  0  0
   12.8171   -5.9337   20.6370 C   0  0  0  0  0  0  0  0  0  0  0  0
   12.7093   -5.0700   24.1605 C   0  0  0  0  0  0  0  0  0  0  0  0
   12.6836   -4.5537   22.7323 C   0  0  0  0  0  0  0  0  0  0  0  0
   17.0848  -10.8114   11.6638 C   0  0  0  0  0  0  0  0  0  0  0  0
   17.0599  -10.0412   10.3720 C   0  0  0  0  0  0  0  0  0  0  0  0
   15.8599   -9.8462    9.6714 C   0  0  0  0  0  0  0  0  0  0  0  0
   14.5594  -10.3577   10.1937 C   0  0  0  0  0  0  0  0  0  0  0  0
   15.8670   -9.1646    8.4993 N   0  0  0  0  0  0  0  0  0  0  0  0
   17.0145   -8.6592    7.9803 C   0  0  0  0  0  0  0  0  0  0  0  0
   16.9689   -7.9693    6.7661 C   0  0  0  0  0  0  0  0  0  0  0  0
   18.1448   -7.4462    6.2295 C   0  0  0  0  0  0  0  0  0  0  0  0
   19.3496   -7.6158    6.9083 C   0  0  0  0  0  0  0  0  0  0  0  0
   20.6099   -7.0634    6.3488 C   0  0  0  0  0  0  0  0  0  0  0  0
   19.3617   -8.3098    8.1192 C   0  0  0  0  0  0  0  0  0  0  0  0
   18.2086   -8.8239    8.6446 N   0  0  0  0  0  0  0  0  0  0  0  0
   18.2426   -9.5037    9.8330 C   0  0  0  0  0  0  0  0  0  0  0  0
   19.3344   -9.6498   10.4535 O   0  0  0  0  0  0  0  0  0  0  0  0
 19 20  1  0  0  0
 20 13  1  0  0  0
 13 14  2  0  0  0
 14 15  1  0  0  0
 15 16  2  0  0  0
 16  9  1  0  0  0
 16 17  1  0  0  0
  9 10  1  0  0  0
 10 11  2  0  0  0
 10  8  1  0  0  0
  8  7  1  0  0  0
  7  1  1  0  0  0
  1  2  2  0  0  0
  2  3  1  0  0  0
  3  4  2  0  0  0
  4 21  1  0  0  0
  4  5  1  0  0  0
 21 22  1  0  0  0
 22 23  2  0  0  0
 23 24  1  0  0  0
 23 25  1  0  0  0
 25 26  2  0  0  0
 26 27  1  0  0  0
 27 28  2  0  0  0
 28 29  1  0  0  0
 29 30  1  0  0  0
 29 31  2  0  0  0
 31 32  1  0  0  0
 32 33  1  0  0  0
 32 26  1  0  0  0
 33 34  2  0  0  0
 33 22  1  0  0  0
  5  6  1  0  0  0
  5  1  1  0  0  0
 17 18  2  0  0  0
 18 13  1  0  0  0
  9 12  1  0  0  0
M  END
>  <minimizedAffinity>
-5.85968

>  <minimizedRMSD>
2.46521

$$$$
ChemDiv-P169-0149 MolPort-010-921-247


 25 28  0  0  0  0  0  0  0  0999 V2000
   18.2371   -9.6309   12.0193 N   0  0  0  0  0  0  0  0  0  0  0  0
   18.2698  -10.5142   13.1428 C   0  0  0  0  0  0  0  0  0  0  0  0
   18.7877  -11.6590   13.0292 O   0  0  0  0  0  0  0  0  0  0  0  0
   17.8276   -8.7417   12.1239 H   0  0  0  0  0  0  0  0  0  0  0  0
   17.6992  -10.0875   14.4321 C   0  0  0  0  0  0  0  0  0  0  0  0
   18.0849  -10.7364   15.6322 C   0  0  0  0  0  0  0  0  0  0  0  0
   17.5497  -10.3410   16.8720 C   0  0  0  0  0  0  0  0  0  0  0  0
   16.6333   -9.2938   16.8667 C   0  0  0  0  0  0  0  0  0  0  0  0
   16.0001   -8.7533   17.9161 N   0  0  0  0  0  0  0  0  0  0  0  0
   15.2367   -7.7826   17.3468 C   0  0  0  0  0  0  0  0  0  0  0  0
   15.3713   -7.7013   15.9961 N   0  0  0  0  0  0  0  0  0  0  0  0
   16.2585   -8.6668   15.7224 C   0  0  0  0  0  0  0  0  0  0  0  0
   16.7657   -9.0295   14.4779 C   0  0  0  0  0  0  0  0  0  0  0  0
   16.0702   -8.9988   18.8669 H   0  0  0  0  0  0  0  0  0  0  0  0
   18.7891  -10.0037   10.7276 C   0  0  0  0  0  0  0  0  0  0  0  0
   20.0056   -7.1414    6.0291 C   0  0  0  0  0  0  0  0  0  0  0  0
   18.9730   -7.8056    6.8663 C   0  0  0  0  0  0  0  0  0  0  0  0
   19.2679   -8.4717    8.0170 N   0  0  0  0  0  0  0  0  0  0  0  0
   18.1485   -8.9513    8.5359 N   0  0  0  0  0  0  0  0  0  0  0  0
   17.8380   -9.6140    9.6484 C   0  0  0  0  0  0  0  0  0  0  0  0
   16.4460   -9.7265    9.6313 C   0  0  0  0  0  0  0  0  0  0  0  0
   15.6159  -10.3565   10.6940 C   0  0  0  0  0  0  0  0  0  0  0  0
   15.9197   -9.1418    8.5138 N   0  0  0  0  0  0  0  0  0  0  0  0
   17.0318   -8.6972    7.8965 C   0  0  0  0  0  0  0  0  0  0  0  0
   17.2883   -7.7961    6.5067 S   0  0  0  0  0  0  0  0  0  0  0  0
 16 17  1  0  0  0
 17 18  2  0  0  0
 18 19  1  0  0  0
 19 20  1  0  0  0
 20 15  1  0  0  0
 15  1  1  0  0  0
  1  2  1  0  0  0
  2  3  2  0  0  0
  2  5  1  0  0  0
  5  6  2  0  0  0
  6  7  1  0  0  0
  7  8  2  0  0  0
  8  9  1  0  0  0
  9 10  1  0  0  0
 10 11  2  0  0  0
 11 12  1  0  0  0
 12 13  2  0  0  0
 20 21  2  0  0  0
 21 22  1  0  0  0
 21 23  1  0  0  0
 23 24  2  0  0  0
 24 25  1  0  0  0
 25 17  1  0  0  0
 24 19  1  0  0  0
 13  5  1  0  0  0
 12  8  1  0  0  0
  1  4  1  0  0  0
  9 14  1  0  0  0
M  END
>  <minimizedAffinity>
-5.85403

>  <minimizedRMSD>
1.12295

$$$$
ChemDiv-G357-0510 MCULE-9574679262 MolPort-007-847-210 PubChem-20952998 ZINC000015771604 ZINC15771604


 28 30  0  0  0  0  0  0  0  0999 V2000
   17.2983   -9.8059   15.4494 C   0  0  0  0  0  0  0  0  0  0  0  0
   18.1952  -10.5523   15.9309 O   0  0  0  0  0  0  0  0  0  0  0  0
   14.7385   -7.5601   18.0514 C   0  0  0  0  0  0  0  0  0  0  0  0
   14.4692   -7.6313   16.6766 C   0  0  0  0  0  0  0  0  0  0  0  0
   15.3049   -8.3641   15.8297 C   0  0  0  0  0  0  0  0  0  0  0  0
   16.4208   -9.0356   16.3454 C   0  0  0  0  0  0  0  0  0  0  0  0
   16.6893   -8.9647   17.7194 C   0  0  0  0  0  0  0  0  0  0  0  0
   15.8525   -8.2312   18.5652 C   0  0  0  0  0  0  0  0  0  0  0  0
   12.6723   -7.2588   19.5402 C   0  0  0  0  0  0  0  0  0  0  0  0
   12.1957   -8.3959   19.2832 O   0  0  0  0  0  0  0  0  0  0  0  0
   13.9040   -6.8184   18.9515 N   0  0  0  0  0  0  0  0  0  0  0  0
   14.2081   -5.9130   19.1902 H   0  0  0  0  0  0  0  0  0  0  0  0
   12.6772   -6.2109   21.7716 C   0  0  0  0  0  0  0  0  0  0  0  0
   11.9309   -6.3519   20.4592 C   0  0  0  0  0  0  0  0  0  0  0  0
   17.1331   -9.7064   14.0662 O   0  0  0  0  0  0  0  0  0  0  0  0
   17.7758  -10.5977   13.1668 C   0  0  0  0  0  0  0  0  0  0  0  0
   17.6260  -10.0949   11.7757 C   0  0  0  0  0  0  0  0  0  0  0  0
   16.4675  -10.4027   11.0435 C   0  0  0  0  0  0  0  0  0  0  0  0
   16.3374   -9.8951    9.7460 C   0  0  0  0  0  0  0  0  0  0  0  0
   15.3128  -10.1567    9.0616 O   0  0  0  0  0  0  0  0  0  0  0  0
   17.3324   -9.1174    9.2436 N   0  0  0  0  0  0  0  0  0  0  0  0
   17.3329   -8.5756    8.0280 N   0  0  0  0  0  0  0  0  0  0  0  0
   18.4487   -7.8414    7.7995 C   0  0  0  0  0  0  0  0  0  0  0  0
   19.5063   -7.8560    9.1272 S   0  0  0  0  0  0  0  0  0  0  0  0
   18.4313   -8.8310    9.9730 C   0  0  0  0  0  0  0  0  0  0  0  0
   18.5944   -9.3041   11.2325 N   0  0  0  0  0  0  0  0  0  0  0  0
   18.7282   -7.1600    6.5070 C   0  0  0  0  0  0  0  0  0  0  0  0
   20.0911   -7.5750    5.9903 C   0  0  0  0  0  0  0  0  0  0  0  0
 13 14  1  0  0  0
 14  9  1  0  0  0
  9 10  2  0  0  0
  9 11  1  0  0  0
 11  3  1  0  0  0
  3  4  2  0  0  0
  4  5  1  0  0  0
  5  6  2  0  0  0
  6  7  1  0  0  0
  6  1  1  0  0  0
  7  8  2  0  0  0
  8  3  1  0  0  0
  1  2  2  0  0  0
  1 15  1  0  0  0
 15 16  1  0  0  0
 16 17  1  0  0  0
 17 18  2  0  0  0
 18 19  1  0  0  0
 19 20  2  0  0  0
 19 21  1  0  0  0
 21 22  1  0  0  0
 22 23  2  0  0  0
 23 27  1  0  0  0
 23 24  1  0  0  0
 27 28  1  0  0  0
 24 25  1  0  0  0
 25 26  2  0  0  0
 25 21  1  0  0  0
 26 17  1  0  0  0
 11 12  1  0  0  0
M  END
>  <minimizedAffinity>
-5.84898

>  <minimizedRMSD>
2.37388

$$$$
ChemDiv-D466-0460 MCULE-8991980146 MolPort-010-677-111 PubChem-50750490 ZINC000021800211


 27 30  0  0  0  0  0  0  0  0999 V2000
   15.6989  -10.1460   13.0309 C   0  0  0  0  0  0  0  0  0  0  0  0
   16.6201   -9.8525   11.9457 N   0  0  0  0  0  0  0  0  0  0  0  0
   17.0293   -8.4489   12.0937 C   0  0  0  0  0  0  0  0  0  0  0  0
   18.0693   -8.0688   11.0272 C   0  0  0  0  0  0  0  0  0  0  0  0
   17.6799   -8.6326    9.7387 N   0  0  0  0  0  0  0  0  0  0  0  0
   16.7016   -9.5426    9.5516 C   0  0  0  0  0  0  0  0  0  0  0  0
   15.8670  -10.0152   10.6963 C   0  0  0  0  0  0  0  0  0  0  0  0
   16.5487   -9.9305    8.2589 N   0  0  0  0  0  0  0  0  0  0  0  0
   17.5119   -9.2215    7.6322 C   0  0  0  0  0  0  0  0  0  0  0  0
   17.8247   -9.2319    6.2753 C   0  0  0  0  0  0  0  0  0  0  0  0
   18.8820   -8.4062    5.8472 C   0  0  0  0  0  0  0  0  0  0  0  0
   19.5896   -7.6033    6.7709 C   0  0  0  0  0  0  0  0  0  0  0  0
   19.2505   -7.6130    8.1367 C   0  0  0  0  0  0  0  0  0  0  0  0
   18.1993   -8.4416    8.5223 C   0  0  0  0  0  0  0  0  0  0  0  0
   17.6051  -11.0059   14.4401 C   0  0  0  0  0  0  0  0  0  0  0  0
   16.4429  -10.2249   14.3232 C   0  0  0  0  0  0  0  0  0  0  0  0
   15.9898   -9.4775   15.4148 C   0  0  0  0  0  0  0  0  0  0  0  0
   16.6768   -9.5073   16.6364 C   0  0  0  0  0  0  0  0  0  0  0  0
   17.8279  -10.2909   16.7535 C   0  0  0  0  0  0  0  0  0  0  0  0
   18.2909  -11.0344   15.6652 C   0  0  0  0  0  0  0  0  0  0  0  0
   16.2351   -8.7543   17.7742 N   0  0  0  0  0  0  0  0  0  0  0  0
   15.1285   -7.8448   17.8224 C   0  0  0  0  0  0  0  0  0  0  0  0
   14.8123   -7.1516   19.0979 C   0  0  0  0  0  0  0  0  0  0  0  0
   14.4199   -7.6206   16.8060 O   0  0  0  0  0  0  0  0  0  0  0  0
   16.7446   -8.8745   18.6080 H   0  0  0  0  0  0  0  0  0  0  0  0
   19.4394  -11.9378   13.0612 C   0  0  0  0  0  0  0  0  0  0  0  0
   18.0597  -11.7401   13.3382 O   0  0  0  0  0  0  0  0  0  0  0  0
 26 27  1  0  0  0
 27 15  1  0  0  0
 15 16  2  0  0  0
 16  1  1  0  0  0
 16 17  1  0  0  0
  1  2  1  0  0  0
  2  3  1  0  0  0
  3  4  1  0  0  0
  4  5  1  0  0  0
  5  6  1  0  0  0
  6  7  1  0  0  0
  6  8  2  0  0  0
  7  2  1  0  0  0
  8  9  1  0  0  0
  9 10  2  0  0  0
 10 11  1  0  0  0
 11 12  2  0  0  0
 12 13  1  0  0  0
 13 14  2  0  0  0
 14  9  1  0  0  0
 14  5  1  0  0  0
 17 18  2  0  0  0
 18 21  1  0  0  0
 18 19  1  0  0  0
 21 22  1  0  0  0
 22 23  1  0  0  0
 22 24  2  0  0  0
 19 20  2  0  0  0
 20 15  1  0  0  0
 21 25  1  0  0  0
M  END
>  <minimizedAffinity>
-5.83247

>  <minimizedRMSD>
1.10849

$$$$
ChemDiv-C679-4868 MCULE-3488688914 MolPort-007-655-997 PubChem-20874317 ZINC000013368295 ZINC13368295


 29 32  0  0  0  0  0  0  0  0999 V2000
   16.9101   -9.1636   13.1781 O   0  0  0  0  0  0  0  0  0  0  0  0
   15.5442   -8.8035   16.5981 C   0  0  0  0  0  0  0  0  0  0  0  0
   15.6388   -8.8476   15.1986 C   0  0  0  0  0  0  0  0  0  0  0  0
   16.8580   -9.1283   14.5738 C   0  0  0  0  0  0  0  0  0  0  0  0
   17.9960   -9.3668   15.3602 C   0  0  0  0  0  0  0  0  0  0  0  0
   17.9093   -9.3233   16.7537 C   0  0  0  0  0  0  0  0  0  0  0  0
   16.6866   -9.0421   17.3690 C   0  0  0  0  0  0  0  0  0  0  0  0
   14.0896   -7.5141   18.2685 C   0  0  0  0  0  0  0  0  0  0  0  0
   15.0152   -6.7390   18.6294 O   0  0  0  0  0  0  0  0  0  0  0  0
   14.3087   -8.5150   17.2665 N   0  0  0  0  0  0  0  0  0  0  0  0
   13.5305   -9.0611   17.0106 H   0  0  0  0  0  0  0  0  0  0  0  0
   12.7255   -7.3775   18.8712 C   0  0  0  0  0  0  0  0  0  0  0  0
   12.7032   -5.6884   20.7526 C   0  0  0  0  0  0  0  0  0  0  0  0
   12.7416   -7.1608   20.3863 C   0  0  0  0  0  0  0  0  0  0  0  0
   13.9258   -7.8458   21.0454 C   0  0  0  0  0  0  0  0  0  0  0  0
   17.7694  -10.0425   12.4639 C   0  0  0  0  0  0  0  0  0  0  0  0
   17.7619   -9.6834   11.0214 C   0  0  0  0  0  0  0  0  0  0  0  0
   16.7788  -10.2202   10.1737 C   0  0  0  0  0  0  0  0  0  0  0  0
   16.7766   -9.8463    8.8253 C   0  0  0  0  0  0  0  0  0  0  0  0
   15.9113  -10.3137    8.0383 O   0  0  0  0  0  0  0  0  0  0  0  0
   17.7202   -8.9723    8.3859 N   0  0  0  0  0  0  0  0  0  0  0  0
   17.8291   -8.5393    7.1321 N   0  0  0  0  0  0  0  0  0  0  0  0
   18.8548   -7.6645    6.9803 C   0  0  0  0  0  0  0  0  0  0  0  0
   19.6956   -7.4167    8.4364 S   0  0  0  0  0  0  0  0  0  0  0  0
   18.6483   -8.4661    9.2245 C   0  0  0  0  0  0  0  0  0  0  0  0
   18.6844   -8.8046   10.5365 N   0  0  0  0  0  0  0  0  0  0  0  0
   19.2383   -7.0650    5.6674 C   0  0  0  0  0  0  0  0  0  0  0  0
   19.4862   -8.1658    4.6529 C   0  0  0  0  0  0  0  0  0  0  0  0
   20.6566   -7.4686    5.3080 C   0  0  0  0  0  0  0  0  0  0  0  0
 13 14  1  0  0  0
 14 15  1  0  0  0
 14 12  1  0  0  0
 12  8  1  0  0  0
  8  9  2  0  0  0
  8 10  1  0  0  0
 10  2  1  0  0  0
  2  3  2  0  0  0
  3  4  1  0  0  0
  4  1  1  0  0  0
  4  5  2  0  0  0
  1 16  1  0  0  0
 16 17  1  0  0  0
 17 18  2  0  0  0
 18 19  1  0  0  0
 19 20  2  0  0  0
 19 21  1  0  0  0
 21 22  1  0  0  0
 22 23  2  0  0  0
 23 24  1  0  0  0
 23 27  1  0  0  0
 24 25  1  0  0  0
 25 26  2  0  0  0
 25 21  1  0  0  0
 26 17  1  0  0  0
 27 28  1  0  0  0
 28 29  1  0  0  0
 29 27  1  0  0  0
  5  6  1  0  0  0
  6  7  2  0  0  0
  7  2  1  0  0  0
 10 11  1  0  0  0
M  END
>  <minimizedAffinity>
-5.82747

>  <minimizedRMSD>
2.01788

$$$$
ChemDiv-D483-1713 MCULE-9000919087 MolPort-007-710-983 PubChem-20899109 ZINC000015859275 ZINC15859275


 32 35  0  0  0  0  0  0  0  0999 V2000
   15.5005   -9.3968   14.5533 C   0  0  0  0  0  0  0  0  0  0  0  0
   16.9120   -9.6784   14.3460 N   0  0  0  0  0  0  0  0  0  0  0  0
   17.4919  -10.3318   13.3252 C   0  0  0  0  0  0  0  0  0  0  0  0
   18.8304  -10.3857   13.4764 N   0  0  0  0  0  0  0  0  0  0  0  0
   19.1177   -9.7582   14.6090 N   0  0  0  0  0  0  0  0  0  0  0  0
   17.9494   -9.3335   15.1270 C   0  0  0  0  0  0  0  0  0  0  0  0
   16.7583  -10.9367   12.1699 C   0  0  0  0  0  0  0  0  0  0  0  0
   16.9408  -10.1083   10.9289 C   0  0  0  0  0  0  0  0  0  0  0  0
   15.8807   -9.9082   10.0310 C   0  0  0  0  0  0  0  0  0  0  0  0
   14.5252  -10.4762   10.2851 C   0  0  0  0  0  0  0  0  0  0  0  0
   16.0780   -9.1743    8.9083 N   0  0  0  0  0  0  0  0  0  0  0  0
   17.2851   -8.6230    8.6259 C   0  0  0  0  0  0  0  0  0  0  0  0
   17.4385   -7.8799    7.4529 C   0  0  0  0  0  0  0  0  0  0  0  0
   18.6766   -7.3112    7.1584 C   0  0  0  0  0  0  0  0  0  0  0  0
   19.7469   -7.4885    8.0339 C   0  0  0  0  0  0  0  0  0  0  0  0
   19.5614   -8.2365    9.1977 C   0  0  0  0  0  0  0  0  0  0  0  0
   18.3468   -8.7947    9.4865 N   0  0  0  0  0  0  0  0  0  0  0  0
   18.1864   -9.5268   10.6326 C   0  0  0  0  0  0  0  0  0  0  0  0
   19.1543   -9.6832   11.4316 O   0  0  0  0  0  0  0  0  0  0  0  0
   17.8148   -8.4247   16.6671 S   0  0  0  0  0  0  0  0  0  0  0  0
   16.1903   -9.1445   17.0754 C   0  0  0  0  0  0  0  0  0  0  0  0
   15.3992   -8.2094   17.9271 C   0  0  0  0  0  0  0  0  0  0  0  0
   14.8140   -7.2316   17.3890 O   0  0  0  0  0  0  0  0  0  0  0  0
   15.3130   -8.4410   19.3398 N   0  0  0  0  0  0  0  0  0  0  0  0
   15.7221   -9.2705   19.6772 H   0  0  0  0  0  0  0  0  0  0  0  0
   14.6912   -7.5871   20.3128 C   0  0  0  0  0  0  0  0  0  0  0  0
   15.4988   -6.7790   21.1282 C   0  0  0  0  0  0  0  0  0  0  0  0
   16.8490   -6.8214   21.0122 F   0  0  0  0  0  0  0  0  0  0  0  0
   14.9175   -5.9220   22.0680 C   0  0  0  0  0  0  0  0  0  0  0  0
   13.5275   -5.8647   22.2001 C   0  0  0  0  0  0  0  0  0  0  0  0
   12.7159   -6.6644   21.3915 C   0  0  0  0  0  0  0  0  0  0  0  0
   13.2953   -7.5215   20.4520 C   0  0  0  0  0  0  0  0  0  0  0  0
  1  2  1  0  0  0
  2  3  1  0  0  0
  3  7  1  0  0  0
  3  4  2  0  0  0
  7  8  1  0  0  0
  8  9  2  0  0  0
  9 10  1  0  0  0
  9 11  1  0  0  0
 11 12  2  0  0  0
 12 13  1  0  0  0
 13 14  2  0  0  0
 14 15  1  0  0  0
 15 16  2  0  0  0
 16 17  1  0  0  0
 17 18  1  0  0  0
 17 12  1  0  0  0
 18 19  2  0  0  0
 18  8  1  0  0  0
  4  5  1  0  0  0
  5  6  2  0  0  0
  6 20  1  0  0  0
  6  2  1  0  0  0
 20 21  1  0  0  0
 21 22  1  0  0  0
 22 23  2  0  0  0
 22 24  1  0  0  0
 24 26  1  0  0  0
 26 27  2  0  0  0
 27 28  1  0  0  0
 27 29  1  0  0  0
 29 30  2  0  0  0
 30 31  1  0  0  0
 31 32  2  0  0  0
 32 26  1  0  0  0
 24 25  1  0  0  0
M  END
>  <minimizedAffinity>
-5.82422

>  <minimizedRMSD>
2.80421

$$$$
ChemDiv-G756-0581 CHEMBL2355791 MCULE-1482288618 MolPort-007-879-277 PubChem-16030285


 34 37  0  0  0  0  0  0  0  0999 V2000
   16.4650   -9.7918   17.3668 C   0  0  0  0  0  0  0  0  0  0  0  0
   16.4441   -9.5087   15.9927 C   0  0  0  0  0  0  0  0  0  0  0  0
   17.3184  -10.1591   15.1162 C   0  0  0  0  0  0  0  0  0  0  0  0
   18.2253  -11.1034   15.6225 C   0  0  0  0  0  0  0  0  0  0  0  0
   18.2532  -11.3880   16.9898 C   0  0  0  0  0  0  0  0  0  0  0  0
   17.3760  -10.7325   17.8580 C   0  0  0  0  0  0  0  0  0  0  0  0
   14.8665   -7.9126   18.0714 C   0  0  0  0  0  0  0  0  0  0  0  0
   14.8807   -7.3529   16.9424 O   0  0  0  0  0  0  0  0  0  0  0  0
   15.5880   -9.1339   18.2902 N   0  0  0  0  0  0  0  0  0  0  0  0
   15.4680   -9.5651   19.1671 H   0  0  0  0  0  0  0  0  0  0  0  0
   14.0472   -7.3068   19.1797 C   0  0  0  0  0  0  0  0  0  0  0  0
   12.9403   -5.1044   19.6083 C   0  0  0  0  0  0  0  0  0  0  0  0
   14.2560   -5.8009   19.3180 C   0  0  0  0  0  0  0  0  0  0  0  0
   14.2268   -7.9794   20.4320 O   0  0  0  0  0  0  0  0  0  0  0  0
   15.0073   -7.5163   21.5039 C   0  0  0  0  0  0  0  0  0  0  0  0
   14.5606   -7.7498   22.8093 C   0  0  0  0  0  0  0  0  0  0  0  0
   15.3102   -7.3078   23.9037 C   0  0  0  0  0  0  0  0  0  0  0  0
   16.5142   -6.6287   23.6987 C   0  0  0  0  0  0  0  0  0  0  0  0
   16.9687   -6.3907   22.3991 C   0  0  0  0  0  0  0  0  0  0  0  0
   16.2186   -6.8317   21.3055 C   0  0  0  0  0  0  0  0  0  0  0  0
   17.2661   -9.8486   13.7551 O   0  0  0  0  0  0  0  0  0  0  0  0
   17.9708  -10.5928   12.7700 C   0  0  0  0  0  0  0  0  0  0  0  0
   17.6248  -10.0819   11.4176 C   0  0  0  0  0  0  0  0  0  0  0  0
   16.3732  -10.3467   10.8728 C   0  0  0  0  0  0  0  0  0  0  0  0
   16.0658   -9.8323    9.6149 C   0  0  0  0  0  0  0  0  0  0  0  0
   14.9324  -10.0776    9.1169 O   0  0  0  0  0  0  0  0  0  0  0  0
   16.9839   -9.0746    8.9372 N   0  0  0  0  0  0  0  0  0  0  0  0
   16.6746   -8.5738    7.7042 C   0  0  0  0  0  0  0  0  0  0  0  0
   17.5915   -7.7980    6.9954 C   0  0  0  0  0  0  0  0  0  0  0  0
   18.8375   -7.5316    7.5565 C   0  0  0  0  0  0  0  0  0  0  0  0
   19.1588   -8.0385    8.8142 C   0  0  0  0  0  0  0  0  0  0  0  0
   20.4990   -7.7396    9.3954 C   0  0  0  0  0  0  0  0  0  0  0  0
   18.2147   -8.8187    9.5034 C   0  0  0  0  0  0  0  0  0  0  0  0
   18.5142   -9.3214   10.7321 N   0  0  0  0  0  0  0  0  0  0  0  0
 12 13  1  0  0  0
 11 13  1  0  0  0
 11 14  1  0  0  0
 11  7  1  0  0  0
 14 15  1  0  0  0
 15 16  2  0  0  0
 16 17  1  0  0  0
 17 18  2  0  0  0
 18 19  1  0  0  0
 19 20  2  0  0  0
 20 15  1  0  0  0
  7  8  2  0  0  0
  7  9  1  0  0  0
  9  1  1  0  0  0
  1  2  2  0  0  0
  2  3  1  0  0  0
  3 21  1  0  0  0
  3  4  2  0  0  0
 21 22  1  0  0  0
 22 23  1  0  0  0
 23 24  2  0  0  0
 24 25  1  0  0  0
 25 26  2  0  0  0
 25 27  1  0  0  0
 27 28  1  0  0  0
 28 29  2  0  0  0
 29 30  1  0  0  0
 30 31  2  0  0  0
 31 32  1  0  0  0
 31 33  1  0  0  0
 33 34  2  0  0  0
 33 27  1  0  0  0
 34 23  1  0  0  0
  4  5  1  0  0  0
  5  6  2  0  0  0
  6  1  1  0  0  0
  9 10  1  0  0  0
M  END
>  <minimizedAffinity>
-5.79983

>  <minimizedRMSD>
1.45605

$$$$
ChemDiv-G357-3498 MCULE-9212724761 MolPort-007-848-011 PubChem-20953226 ZINC000015772376


 29 31  0  0  0  0  0  0  0  0999 V2000
   17.1119   -9.6446   13.6807 O   0  0  0  0  0  0  0  0  0  0  0  0
   17.7134   -9.4291   14.9224 C   0  0  0  0  0  0  0  0  0  0  0  0
   18.9502   -9.6317   15.0741 O   0  0  0  0  0  0  0  0  0  0  0  0
   16.8975   -8.9651   16.0560 C   0  0  0  0  0  0  0  0  0  0  0  0
   15.7711   -8.1642   15.8295 C   0  0  0  0  0  0  0  0  0  0  0  0
   14.9927   -7.7223   16.9026 C   0  0  0  0  0  0  0  0  0  0  0  0
   15.3306   -8.0754   18.2173 C   0  0  0  0  0  0  0  0  0  0  0  0
   16.4556   -8.8748   18.4425 C   0  0  0  0  0  0  0  0  0  0  0  0
   17.2351   -9.3177   17.3700 C   0  0  0  0  0  0  0  0  0  0  0  0
   14.5553   -7.6424   19.3433 N   0  0  0  0  0  0  0  0  0  0  0  0
   13.4801   -6.6936   19.3304 C   0  0  0  0  0  0  0  0  0  0  0  0
   13.1246   -6.1224   18.2655 O   0  0  0  0  0  0  0  0  0  0  0  0
   14.7849   -8.0374   20.2154 H   0  0  0  0  0  0  0  0  0  0  0  0
   12.7909   -6.3550   20.6047 C   0  0  0  0  0  0  0  0  0  0  0  0
   13.1369   -7.3798   21.6665 C   0  0  0  0  0  0  0  0  0  0  0  0
   17.6017  -10.6150   12.7670 C   0  0  0  0  0  0  0  0  0  0  0  0
   17.4988   -8.9816    8.8811 N   0  0  0  0  0  0  0  0  0  0  0  0
   17.6042   -8.3921    7.6925 N   0  0  0  0  0  0  0  0  0  0  0  0
   18.7382   -7.6576    7.5887 C   0  0  0  0  0  0  0  0  0  0  0  0
   19.6791   -7.7309    8.9996 S   0  0  0  0  0  0  0  0  0  0  0  0
   18.5328   -8.7310    9.7117 C   0  0  0  0  0  0  0  0  0  0  0  0
   18.5865   -9.2540   10.9610 N   0  0  0  0  0  0  0  0  0  0  0  0
   17.5728  -10.0590   11.3884 C   0  0  0  0  0  0  0  0  0  0  0  0
   16.4802  -10.3311   10.5486 C   0  0  0  0  0  0  0  0  0  0  0  0
   16.4627   -9.7727    9.2658 C   0  0  0  0  0  0  0  0  0  0  0  0
   15.5005  -10.0029    8.4863 O   0  0  0  0  0  0  0  0  0  0  0  0
   19.1272   -6.9258    6.3537 C   0  0  0  0  0  0  0  0  0  0  0  0
   19.9393   -7.8337    5.4521 C   0  0  0  0  0  0  0  0  0  0  0  0
   21.2109   -7.1251    5.0363 C   0  0  0  0  0  0  0  0  0  0  0  0
 17 18  1  0  0  0
 18 19  2  0  0  0
 19 20  1  0  0  0
 20 21  1  0  0  0
 21 22  2  0  0  0
 22 23  1  0  0  0
 23 16  1  0  0  0
 16  1  1  0  0  0
  1  2  1  0  0  0
  2  3  2  0  0  0
  2  4  1  0  0  0
  4  5  2  0  0  0
  5  6  1  0  0  0
  6  7  2  0  0  0
  7  8  1  0  0  0
  8  9  2  0  0  0
  7 10  1  0  0  0
 10 11  1  0  0  0
 11 14  1  0  0  0
 14 15  1  0  0  0
 11 12  2  0  0  0
 23 24  2  0  0  0
 24 25  1  0  0  0
 25 26  2  0  0  0
 19 27  1  0  0  0
 27 28  1  0  0  0
 28 29  1  0  0  0
 21 17  1  0  0  0
  9  4  1  0  0  0
 25 17  1  0  0  0
 10 13  1  0  0  0
M  END
>  <minimizedAffinity>
-5.77101

>  <minimizedRMSD>
2.02870

$$$$
ChemDiv-G357-1320 MCULE-4463428081 MolPort-007-847-489 PubChem-20953099 ZINC000015771990 ZINC15771990


 35 39  0  0  0  0  0  0  0  0999 V2000
   16.4435   -8.8938   16.5400 C   0  0  0  0  0  0  0  0  0  0  0  0
   16.1231   -8.1198   15.4149 C   0  0  0  0  0  0  0  0  0  0  0  0
   16.4553   -8.5652   14.1326 C   0  0  0  0  0  0  0  0  0  0  0  0
   17.1120   -9.7901   13.9577 C   0  0  0  0  0  0  0  0  0  0  0  0
   17.4327  -10.5631   15.0822 C   0  0  0  0  0  0  0  0  0  0  0  0
   17.1002  -10.1162   16.3642 C   0  0  0  0  0  0  0  0  0  0  0  0
   14.1049   -7.3425   17.4380 O   0  0  0  0  0  0  0  0  0  0  0  0
   14.9760   -7.7044   18.2727 C   0  0  0  0  0  0  0  0  0  0  0  0
   16.1197   -8.4698   17.8710 N   0  0  0  0  0  0  0  0  0  0  0  0
   16.7478   -8.7313   18.5825 H   0  0  0  0  0  0  0  0  0  0  0  0
   14.7968   -7.3633   19.7089 C   0  0  0  0  0  0  0  0  0  0  0  0
   13.4411   -7.8527   20.1895 C   0  0  0  0  0  0  0  0  0  0  0  0
   12.5895   -6.7050   20.6125 C   0  0  0  0  0  0  0  0  0  0  0  0
   12.6979   -6.1765   21.9058 C   0  0  0  0  0  0  0  0  0  0  0  0
   11.8819   -5.1111   22.2980 C   0  0  0  0  0  0  0  0  0  0  0  0
   10.9530   -4.5751   21.4006 C   0  0  0  0  0  0  0  0  0  0  0  0
   10.8390   -5.1050   20.1116 C   0  0  0  0  0  0  0  0  0  0  0  0
   11.6550   -6.1705   19.7189 C   0  0  0  0  0  0  0  0  0  0  0  0
   17.4597  -10.2550   12.6053 C   0  0  0  0  0  0  0  0  0  0  0  0
   18.1609  -11.2938   12.4546 O   0  0  0  0  0  0  0  0  0  0  0  0
   17.0116   -9.5409   11.4918 O   0  0  0  0  0  0  0  0  0  0  0  0
   16.4717  -10.1905   10.3504 C   0  0  0  0  0  0  0  0  0  0  0  0
   16.8984   -9.4728    9.1204 C   0  0  0  0  0  0  0  0  0  0  0  0
   16.0526   -8.5105    8.5440 C   0  0  0  0  0  0  0  0  0  0  0  0
   16.4877   -7.8315    7.4004 C   0  0  0  0  0  0  0  0  0  0  0  0
   15.7507   -6.9668    6.8566 O   0  0  0  0  0  0  0  0  0  0  0  0
   17.7149   -8.1214    6.8930 N   0  0  0  0  0  0  0  0  0  0  0  0
   18.2433   -7.5531    5.8118 N   0  0  0  0  0  0  0  0  0  0  0  0
   19.4851   -8.0268    5.5400 C   0  0  0  0  0  0  0  0  0  0  0  0
   19.9647   -9.2194    6.6518 S   0  0  0  0  0  0  0  0  0  0  0  0
   18.5102   -9.0446    7.4727 C   0  0  0  0  0  0  0  0  0  0  0  0
   18.1241   -9.7249    8.5795 N   0  0  0  0  0  0  0  0  0  0  0  0
   20.2834   -7.6069    4.3497 C   0  0  0  0  0  0  0  0  0  0  0  0
   20.4987   -6.1047    4.3752 C   0  0  0  0  0  0  0  0  0  0  0  0
   21.6146   -7.0324    4.7986 C   0  0  0  0  0  0  0  0  0  0  0  0
  7  8  2  0  0  0
  8 11  1  0  0  0
  8  9  1  0  0  0
 11 12  1  0  0  0
 12 13  1  0  0  0
 13 14  2  0  0  0
 14 15  1  0  0  0
 15 16  2  0  0  0
 16 17  1  0  0  0
 17 18  2  0  0  0
 18 13  1  0  0  0
  9  1  1  0  0  0
  1  2  2  0  0  0
  2  3  1  0  0  0
  3  4  2  0  0  0
  4  5  1  0  0  0
  4 19  1  0  0  0
  5  6  2  0  0  0
  6  1  1  0  0  0
 19 20  2  0  0  0
 19 21  1  0  0  0
 21 22  1  0  0  0
 22 23  1  0  0  0
 23 24  2  0  0  0
 24 25  1  0  0  0
 25 26  2  0  0  0
 25 27  1  0  0  0
 27 28  1  0  0  0
 28 29  2  0  0  0
 29 30  1  0  0  0
 29 33  1  0  0  0
 30 31  1  0  0  0
 31 32  2  0  0  0
 31 27  1  0  0  0
 32 23  1  0  0  0
 33 34  1  0  0  0
 34 35  1  0  0  0
 35 33  1  0  0  0
  9 10  1  0  0  0
M  END
>  <minimizedAffinity>
-5.76683

>  <minimizedRMSD>
1.84432

$$$$
ChemDiv-G357-2994 MCULE-5019043210 MolPort-007-847-882 PubChem-20953160 ZINC000015772148 ZINC15772148


 30 33  0  0  0  0  0  0  0  0999 V2000
   18.0069  -10.5530   14.4348 C   0  0  0  0  0  0  0  0  0  0  0  0
   18.5656  -11.6675   14.6334 O   0  0  0  0  0  0  0  0  0  0  0  0
   17.3050   -9.8738   15.5362 C   0  0  0  0  0  0  0  0  0  0  0  0
   16.5206   -8.7420   15.2786 C   0  0  0  0  0  0  0  0  0  0  0  0
   15.8529   -8.0939   16.3218 C   0  0  0  0  0  0  0  0  0  0  0  0
   15.9589   -8.5709   17.6367 C   0  0  0  0  0  0  0  0  0  0  0  0
   16.7436   -9.6998   17.8927 C   0  0  0  0  0  0  0  0  0  0  0  0
   17.4125  -10.3486   16.8507 C   0  0  0  0  0  0  0  0  0  0  0  0
   15.2957   -7.9282   18.7339 N   0  0  0  0  0  0  0  0  0  0  0  0
   14.0590   -7.2026   18.6853 C   0  0  0  0  0  0  0  0  0  0  0  0
   13.4035   -7.1128   17.6131 O   0  0  0  0  0  0  0  0  0  0  0  0
   15.7351   -7.9917   19.6126 H   0  0  0  0  0  0  0  0  0  0  0  0
   13.5485   -6.5599   19.9016 C   0  0  0  0  0  0  0  0  0  0  0  0
   14.1451   -6.6053   21.1516 C   0  0  0  0  0  0  0  0  0  0  0  0
   13.4271   -5.8906   22.1221 C   0  0  0  0  0  0  0  0  0  0  0  0
   12.2681   -5.2794   21.6486 C   0  0  0  0  0  0  0  0  0  0  0  0
   12.1501   -5.6397   20.0097 S   0  0  0  0  0  0  0  0  0  0  0  0
   18.0518   -9.9580   13.1720 O   0  0  0  0  0  0  0  0  0  0  0  0
   18.8148  -10.5104   12.1095 C   0  0  0  0  0  0  0  0  0  0  0  0
   18.9167   -6.5226    5.9915 C   0  0  0  0  0  0  0  0  0  0  0  0
   18.6793   -7.3919    7.1736 C   0  0  0  0  0  0  0  0  0  0  0  0
   19.6140   -7.6492    8.1824 C   0  0  0  0  0  0  0  0  0  0  0  0
   18.8859   -8.4907    9.0015 C   0  0  0  0  0  0  0  0  0  0  0  0
   19.2849   -9.0717   10.1594 N   0  0  0  0  0  0  0  0  0  0  0  0
   18.4088   -9.8829   10.8245 C   0  0  0  0  0  0  0  0  0  0  0  0
   17.1091  -10.0994   10.3213 C   0  0  0  0  0  0  0  0  0  0  0  0
   16.7439   -9.4781    9.1207 C   0  0  0  0  0  0  0  0  0  0  0  0
   15.5970   -9.6441    8.6282 O   0  0  0  0  0  0  0  0  0  0  0  0
   17.6612   -8.6926    8.5070 N   0  0  0  0  0  0  0  0  0  0  0  0
   17.5461   -8.0258    7.4046 O   0  0  0  0  0  0  0  0  0  0  0  0
 20 21  1  0  0  0
 21 22  2  0  0  0
 22 23  1  0  0  0
 23 24  2  0  0  0
 24 25  1  0  0  0
 25 19  1  0  0  0
 25 26  2  0  0  0
 19 18  1  0  0  0
 18  1  1  0  0  0
  1  2  2  0  0  0
  1  3  1  0  0  0
  3  4  2  0  0  0
  4  5  1  0  0  0
  5  6  2  0  0  0
  6  9  1  0  0  0
  6  7  1  0  0  0
  9 10  1  0  0  0
 10 11  2  0  0  0
 10 13  1  0  0  0
 13 14  2  0  0  0
 14 15  1  0  0  0
 15 16  2  0  0  0
 16 17  1  0  0  0
 17 13  1  0  0  0
  7  8  2  0  0  0
  8  3  1  0  0  0
 26 27  1  0  0  0
 27 28  2  0  0  0
 27 29  1  0  0  0
 29 30  1  0  0  0
 29 23  1  0  0  0
 30 21  1  0  0  0
  9 12  1  0  0  0
M  END
>  <minimizedAffinity>
-5.73657

>  <minimizedRMSD>
1.28847

$$$$
ChemDiv-D483-1807 MCULE-1466322436 MolPort-007-710-996 PubChem-20899122 ZINC000015859290 ZINC15859290


 32 35  0  0  0  0  0  0  0  0999 V2000
   15.6820   -8.7586   13.4793 C   0  0  0  0  0  0  0  0  0  0  0  0
   16.8953   -9.5327   13.6882 N   0  0  0  0  0  0  0  0  0  0  0  0
   17.3837  -10.5358   12.9394 C   0  0  0  0  0  0  0  0  0  0  0  0
   18.5474  -10.9979   13.4390 N   0  0  0  0  0  0  0  0  0  0  0  0
   18.8128  -10.2834   14.5246 N   0  0  0  0  0  0  0  0  0  0  0  0
   17.8073   -9.3982   14.6651 C   0  0  0  0  0  0  0  0  0  0  0  0
   16.7277  -11.0793   11.7101 C   0  0  0  0  0  0  0  0  0  0  0  0
   16.9338  -10.1551   10.5435 C   0  0  0  0  0  0  0  0  0  0  0  0
   15.8937   -9.8793    9.6436 C   0  0  0  0  0  0  0  0  0  0  0  0
   14.5329  -10.4627    9.8226 C   0  0  0  0  0  0  0  0  0  0  0  0
   16.1166   -9.0590    8.5876 N   0  0  0  0  0  0  0  0  0  0  0  0
   17.3308   -8.4935    8.3741 C   0  0  0  0  0  0  0  0  0  0  0  0
   17.5097   -7.6561    7.2703 C   0  0  0  0  0  0  0  0  0  0  0  0
   18.7551   -7.0724    7.0467 C   0  0  0  0  0  0  0  0  0  0  0  0
   19.8072   -7.3286    7.9232 C   0  0  0  0  0  0  0  0  0  0  0  0
   19.5960   -8.1698    9.0170 C   0  0  0  0  0  0  0  0  0  0  0  0
   18.3741   -8.7422    9.2366 N   0  0  0  0  0  0  0  0  0  0  0  0
   18.1880   -9.5649   10.3154 C   0  0  0  0  0  0  0  0  0  0  0  0
   19.1408   -9.7977   11.1129 O   0  0  0  0  0  0  0  0  0  0  0  0
   17.7156   -8.1975   15.9931 S   0  0  0  0  0  0  0  0  0  0  0  0
   16.3403   -9.0603   16.8166 C   0  0  0  0  0  0  0  0  0  0  0  0
   15.5400   -8.1088   17.6374 C   0  0  0  0  0  0  0  0  0  0  0  0
   14.7381   -7.3262   17.0627 O   0  0  0  0  0  0  0  0  0  0  0  0
   15.6852   -8.1094   19.0640 N   0  0  0  0  0  0  0  0  0  0  0  0
   16.2890   -8.7865   19.4463 H   0  0  0  0  0  0  0  0  0  0  0  0
   15.0410   -7.2250   19.9907 C   0  0  0  0  0  0  0  0  0  0  0  0
   13.9551   -6.4185   19.6159 C   0  0  0  0  0  0  0  0  0  0  0  0
   13.3566   -5.5627   20.5450 C   0  0  0  0  0  0  0  0  0  0  0  0
   12.3088   -4.7883   20.1755 F   0  0  0  0  0  0  0  0  0  0  0  0
   13.8402   -5.5060   21.8548 C   0  0  0  0  0  0  0  0  0  0  0  0
   14.9222   -6.3047   22.2344 C   0  0  0  0  0  0  0  0  0  0  0  0
   15.5200   -7.1603   21.3040 C   0  0  0  0  0  0  0  0  0  0  0  0
  1  2  1  0  0  0
  2  3  1  0  0  0
  3  7  1  0  0  0
  7  8  1  0  0  0
  8  9  2  0  0  0
  9 10  1  0  0  0
  9 11  1  0  0  0
 11 12  2  0  0  0
 12 13  1  0  0  0
 13 14  2  0  0  0
 14 15  1  0  0  0
 15 16  2  0  0  0
 16 17  1  0  0  0
 17 18  1  0  0  0
 18 19  2  0  0  0
  3  4  2  0  0  0
  4  5  1  0  0  0
  5  6  2  0  0  0
  6 20  1  0  0  0
 20 21  1  0  0  0
 21 22  1  0  0  0
 22 23  2  0  0  0
 22 24  1  0  0  0
 24 26  1  0  0  0
 26 27  2  0  0  0
 27 28  1  0  0  0
 28 29  1  0  0  0
 28 30  2  0  0  0
 30 31  1  0  0  0
 31 32  2  0  0  0
  6  2  1  0  0  0
 32 26  1  0  0  0
 18  8  1  0  0  0
 17 12  1  0  0  0
 24 25  1  0  0  0
M  END
>  <minimizedAffinity>
-5.72308

>  <minimizedRMSD>
2.74996

$$$$
ChemDiv-G357-0997 MCULE-2133343457 MolPort-007-847-382 PubChem-20953064 ZINC000015771867


 29 31  0  0  0  0  0  0  0  0999 V2000
   17.6604  -10.6440   12.8911 C   0  0  0  0  0  0  0  0  0  0  0  0
   17.4445   -8.9974    9.0151 N   0  0  0  0  0  0  0  0  0  0  0  0
   17.5192   -8.4098    7.8234 N   0  0  0  0  0  0  0  0  0  0  0  0
   18.6668   -7.7038    7.6757 C   0  0  0  0  0  0  0  0  0  0  0  0
   19.6564   -7.7985    9.0515 S   0  0  0  0  0  0  0  0  0  0  0  0
   18.5150   -8.7726    9.8059 C   0  0  0  0  0  0  0  0  0  0  0  0
   18.6046   -9.3000   11.0511 N   0  0  0  0  0  0  0  0  0  0  0  0
   17.5900  -10.0828   11.5159 C   0  0  0  0  0  0  0  0  0  0  0  0
   16.4610  -10.3291   10.7174 C   0  0  0  0  0  0  0  0  0  0  0  0
   16.4065   -9.7663    9.4375 C   0  0  0  0  0  0  0  0  0  0  0  0
   15.4091   -9.9706    8.6958 O   0  0  0  0  0  0  0  0  0  0  0  0
   19.0256   -6.9741    6.4263 C   0  0  0  0  0  0  0  0  0  0  0  0
   19.9047   -7.8325    5.5318 C   0  0  0  0  0  0  0  0  0  0  0  0
   21.1674   -7.0840    5.1474 C   0  0  0  0  0  0  0  0  0  0  0  0
   21.5898   -7.4904    3.7517 C   0  0  0  0  0  0  0  0  0  0  0  0
   17.0541   -9.7417   13.8043 O   0  0  0  0  0  0  0  0  0  0  0  0
   17.6659   -9.3877   15.0091 C   0  0  0  0  0  0  0  0  0  0  0  0
   18.9204   -9.4565   15.1296 O   0  0  0  0  0  0  0  0  0  0  0  0
   16.8406   -8.9351   16.1407 C   0  0  0  0  0  0  0  0  0  0  0  0
   15.7040   -8.1492   15.9115 C   0  0  0  0  0  0  0  0  0  0  0  0
   14.9160   -7.7193   16.9827 C   0  0  0  0  0  0  0  0  0  0  0  0
   15.2542   -8.0697   18.2982 C   0  0  0  0  0  0  0  0  0  0  0  0
   16.3901   -8.8534   18.5260 C   0  0  0  0  0  0  0  0  0  0  0  0
   17.1791   -9.2847   17.4554 C   0  0  0  0  0  0  0  0  0  0  0  0
   14.4714   -7.6447   19.4223 N   0  0  0  0  0  0  0  0  0  0  0  0
   13.4742   -6.6154   19.4311 C   0  0  0  0  0  0  0  0  0  0  0  0
   12.7735   -6.2926   20.7004 C   0  0  0  0  0  0  0  0  0  0  0  0
   13.1760   -5.9836   18.3837 O   0  0  0  0  0  0  0  0  0  0  0  0
   14.6359   -8.1075   20.2755 H   0  0  0  0  0  0  0  0  0  0  0  0
  2  3  1  0  0  0
  3  4  2  0  0  0
  4  5  1  0  0  0
  5  6  1  0  0  0
  6  7  2  0  0  0
  7  8  1  0  0  0
  8  1  1  0  0  0
  1 16  1  0  0  0
 16 17  1  0  0  0
 17 18  2  0  0  0
 17 19  1  0  0  0
 19 20  2  0  0  0
 20 21  1  0  0  0
 21 22  2  0  0  0
 22 23  1  0  0  0
 23 24  2  0  0  0
 22 25  1  0  0  0
 25 26  1  0  0  0
 26 27  1  0  0  0
 26 28  2  0  0  0
  8  9  2  0  0  0
  9 10  1  0  0  0
 10 11  2  0  0  0
  4 12  1  0  0  0
 12 13  1  0  0  0
 13 14  1  0  0  0
 14 15  1  0  0  0
  6  2  1  0  0  0
 24 19  1  0  0  0
 10  2  1  0  0  0
 25 29  1  0  0  0
M  END
>  <minimizedAffinity>
-5.71162

>  <minimizedRMSD>
1.97110

$$$$
ChemDiv-G357-2005 MCULE-5573272009 MolPort-007-847-733 PubChem-46343518 ZINC000021633243 ZINC21633243


 28 30  0  0  0  0  0  0  0  0999 V2000
   17.2072   -9.6838   15.6033 C   0  0  0  0  0  0  0  0  0  0  0  0
   18.0777  -10.4401   16.1168 O   0  0  0  0  0  0  0  0  0  0  0  0
   14.5487   -7.4455   18.1109 C   0  0  0  0  0  0  0  0  0  0  0  0
   15.6895   -8.0467   18.6520 C   0  0  0  0  0  0  0  0  0  0  0  0
   16.5586   -8.7775   17.8369 C   0  0  0  0  0  0  0  0  0  0  0  0
   16.2958   -8.9161   16.4670 C   0  0  0  0  0  0  0  0  0  0  0  0
   15.1531   -8.3147   15.9241 C   0  0  0  0  0  0  0  0  0  0  0  0
   14.2851   -7.5845   16.7402 C   0  0  0  0  0  0  0  0  0  0  0  0
   12.4931   -7.1878   19.6223 C   0  0  0  0  0  0  0  0  0  0  0  0
   12.0883   -8.3670   19.4447 O   0  0  0  0  0  0  0  0  0  0  0  0
   13.6812   -6.7047   18.9799 N   0  0  0  0  0  0  0  0  0  0  0  0
   13.9266   -5.7672   19.1537 H   0  0  0  0  0  0  0  0  0  0  0  0
   11.7103   -6.2765   20.5017 C   0  0  0  0  0  0  0  0  0  0  0  0
   11.7089   -4.0110   21.4957 C   0  0  0  0  0  0  0  0  0  0  0  0
   12.5843   -5.1347   20.9832 C   0  0  0  0  0  0  0  0  0  0  0  0
   17.1041   -9.5705   14.2151 O   0  0  0  0  0  0  0  0  0  0  0  0
   17.5679  -10.5896   13.3416 C   0  0  0  0  0  0  0  0  0  0  0  0
   17.5049  -10.1074   11.9367 C   0  0  0  0  0  0  0  0  0  0  0  0
   16.3705  -10.3788   11.1561 C   0  0  0  0  0  0  0  0  0  0  0  0
   16.3223   -9.8908    9.8459 C   0  0  0  0  0  0  0  0  0  0  0  0
   15.3172  -10.1233    9.1220 O   0  0  0  0  0  0  0  0  0  0  0  0
   17.3729   -9.1650    9.3746 N   0  0  0  0  0  0  0  0  0  0  0  0
   17.4810   -8.6210    8.1330 C   0  0  0  0  0  0  0  0  0  0  0  0
   18.6760   -7.9291    7.9497 C   0  0  0  0  0  0  0  0  0  0  0  0
   19.0735   -7.2310    6.6996 C   0  0  0  0  0  0  0  0  0  0  0  0
   19.6099   -7.9971    9.3590 S   0  0  0  0  0  0  0  0  0  0  0  0
   18.4492   -8.9126   10.1528 C   0  0  0  0  0  0  0  0  0  0  0  0
   18.5301   -9.3689   11.4267 N   0  0  0  0  0  0  0  0  0  0  0  0
 14 15  1  0  0  0
 15 13  1  0  0  0
 13  9  1  0  0  0
  9 10  2  0  0  0
  9 11  1  0  0  0
 11  3  1  0  0  0
  3  4  2  0  0  0
  4  5  1  0  0  0
  5  6  2  0  0  0
  6  7  1  0  0  0
  6  1  1  0  0  0
  7  8  2  0  0  0
  8  3  1  0  0  0
  1  2  2  0  0  0
  1 16  1  0  0  0
 16 17  1  0  0  0
 17 18  1  0  0  0
 18 19  2  0  0  0
 19 20  1  0  0  0
 20 21  2  0  0  0
 20 22  1  0  0  0
 22 23  1  0  0  0
 23 24  2  0  0  0
 24 25  1  0  0  0
 24 26  1  0  0  0
 26 27  1  0  0  0
 27 28  2  0  0  0
 27 22  1  0  0  0
 28 18  1  0  0  0
 11 12  1  0  0  0
M  END
>  <minimizedAffinity>
-5.70910

>  <minimizedRMSD>
2.63819

$$$$
ChemDiv-G357-3487 MCULE-3979871276 MolPort-007-848-003 PubChem-20953224 ZINC000015772366


 28 30  0  0  0  0  0  0  0  0999 V2000
   17.6640  -10.7074   12.9563 C   0  0  0  0  0  0  0  0  0  0  0  0
   17.4448   -9.0197    9.0985 N   0  0  0  0  0  0  0  0  0  0  0  0
   17.5170   -8.4181    7.9137 N   0  0  0  0  0  0  0  0  0  0  0  0
   18.6705   -7.7218    7.7667 C   0  0  0  0  0  0  0  0  0  0  0  0
   19.6689   -7.8436    9.1341 S   0  0  0  0  0  0  0  0  0  0  0  0
   18.5226   -8.8152    9.8848 C   0  0  0  0  0  0  0  0  0  0  0  0
   18.6136   -9.3556   11.1245 N   0  0  0  0  0  0  0  0  0  0  0  0
   17.5930  -10.1317   11.5876 C   0  0  0  0  0  0  0  0  0  0  0  0
   16.4553  -10.3553   10.7946 C   0  0  0  0  0  0  0  0  0  0  0  0
   16.3999   -9.7797    9.5204 C   0  0  0  0  0  0  0  0  0  0  0  0
   15.3956   -9.9648    8.7831 O   0  0  0  0  0  0  0  0  0  0  0  0
   19.0269   -6.9787    6.5244 C   0  0  0  0  0  0  0  0  0  0  0  0
   19.7563   -7.8822    5.5432 C   0  0  0  0  0  0  0  0  0  0  0  0
   21.0081   -7.2018    5.0215 C   0  0  0  0  0  0  0  0  0  0  0  0
   17.0190   -9.8354   13.8729 O   0  0  0  0  0  0  0  0  0  0  0  0
   17.6386   -9.4114   15.0505 C   0  0  0  0  0  0  0  0  0  0  0  0
   18.8967   -9.4322   15.1502 O   0  0  0  0  0  0  0  0  0  0  0  0
   16.8175   -8.9396   16.1771 C   0  0  0  0  0  0  0  0  0  0  0  0
   17.1609   -9.2665   17.4964 C   0  0  0  0  0  0  0  0  0  0  0  0
   16.3773   -8.8154   18.5623 C   0  0  0  0  0  0  0  0  0  0  0  0
   15.2424   -8.0332   18.3255 C   0  0  0  0  0  0  0  0  0  0  0  0
   14.8985   -7.7059   17.0055 C   0  0  0  0  0  0  0  0  0  0  0  0
   15.6810   -8.1563   15.9388 C   0  0  0  0  0  0  0  0  0  0  0  0
   14.4645   -7.5893   19.4457 N   0  0  0  0  0  0  0  0  0  0  0  0
   13.4514   -6.5756   19.4381 C   0  0  0  0  0  0  0  0  0  0  0  0
   12.7455   -6.2440   20.7027 C   0  0  0  0  0  0  0  0  0  0  0  0
   13.1477   -5.9604   18.3822 O   0  0  0  0  0  0  0  0  0  0  0  0
   14.6451   -8.0263   20.3092 H   0  0  0  0  0  0  0  0  0  0  0  0
  2  3  1  0  0  0
  3  4  2  0  0  0
  4  5  1  0  0  0
  5  6  1  0  0  0
  6  7  2  0  0  0
  7  8  1  0  0  0
  8  1  1  0  0  0
  1 15  1  0  0  0
 15 16  1  0  0  0
 16 17  2  0  0  0
 16 18  1  0  0  0
 18 19  2  0  0  0
 19 20  1  0  0  0
 20 21  2  0  0  0
 21 22  1  0  0  0
 22 23  2  0  0  0
 21 24  1  0  0  0
 24 25  1  0  0  0
 25 26  1  0  0  0
 25 27  2  0  0  0
  8  9  2  0  0  0
  9 10  1  0  0  0
 10 11  2  0  0  0
  4 12  1  0  0  0
 12 13  1  0  0  0
 13 14  1  0  0  0
  6  2  1  0  0  0
 23 18  1  0  0  0
 10  2  1  0  0  0
 24 28  1  0  0  0
M  END
>  <minimizedAffinity>
-5.70602

>  <minimizedRMSD>
2.03801

$$$$
ChemDiv-Y020-8740 MCULE-6444569791 MolPort-006-384-476 ZINC000013638735


 26 29  0  0  0  0  0  0  0  0999 V2000
   18.8494   -8.2833    7.5509 N   0  0  0  0  0  0  0  0  0  0  0  0
   19.9296   -7.5716    7.2959 N   0  0  0  0  0  0  0  0  0  0  0  0
   20.0696   -7.6483    5.9500 C   0  0  0  0  0  0  0  0  0  0  0  0
   19.1064   -8.3898    5.3404 N   0  0  0  0  0  0  0  0  0  0  0  0
   18.3700   -8.7611    6.4014 C   0  0  0  0  0  0  0  0  0  0  0  0
   17.2538   -9.5302    6.3600 N   0  0  0  0  0  0  0  0  0  0  0  0
   16.6108   -9.8200    7.5299 C   0  0  0  0  0  0  0  0  0  0  0  0
   17.1012   -9.3289    8.7606 C   0  0  0  0  0  0  0  0  0  0  0  0
   16.4686   -9.5977    9.9846 C   0  0  0  0  0  0  0  0  0  0  0  0
   17.0044   -9.1105   11.1518 N   0  0  0  0  0  0  0  0  0  0  0  0
   18.1122   -8.3160   11.1360 C   0  0  0  0  0  0  0  0  0  0  0  0
   18.7666   -8.0145    9.9410 C   0  0  0  0  0  0  0  0  0  0  0  0
   18.2636   -8.5311    8.7486 C   0  0  0  0  0  0  0  0  0  0  0  0
   15.3966  -10.2639   10.0028 O   0  0  0  0  0  0  0  0  0  0  0  0
   21.1733   -6.9829    5.2092 C   0  0  0  0  0  0  0  0  0  0  0  0
   16.3967   -9.3524   12.3975 N   0  0  0  0  0  0  0  0  0  0  0  0
   15.4408   -9.1393   12.4975 H   0  0  0  0  0  0  0  0  0  0  0  0
   17.0907   -9.8910   13.5273 C   0  0  0  0  0  0  0  0  0  0  0  0
   17.4177  -11.2115   13.5760 N   0  0  0  0  0  0  0  0  0  0  0  0
   18.0987  -11.7241   14.6335 C   0  0  0  0  0  0  0  0  0  0  0  0
   18.4375  -13.1705   14.6681 C   0  0  0  0  0  0  0  0  0  0  0  0
   18.4820  -10.8926   15.6843 C   0  0  0  0  0  0  0  0  0  0  0  0
   18.1497   -9.5408   15.6126 C   0  0  0  0  0  0  0  0  0  0  0  0
   18.5180   -8.6804   16.6377 O   0  0  0  0  0  0  0  0  0  0  0  0
   17.4668   -9.0648   14.5388 N   0  0  0  0  0  0  0  0  0  0  0  0
   18.9889   -9.0086   17.3783 H   0  0  0  0  0  0  0  0  0  0  0  0
  1  2  1  0  0  0
  2  3  2  0  0  0
  3  4  1  0  0  0
  4  5  2  0  0  0
  5  6  1  0  0  0
  6  7  2  0  0  0
  7  8  1  0  0  0
  8  9  1  0  0  0
  9 10  1  0  0  0
 10 16  1  0  0  0
 16 18  1  0  0  0
 18 19  2  0  0  0
 19 20  1  0  0  0
 20 21  1  0  0  0
 20 22  2  0  0  0
 22 23  1  0  0  0
 23 24  1  0  0  0
 23 25  2  0  0  0
 10 11  1  0  0  0
 11 12  2  0  0  0
 12 13  1  0  0  0
  9 14  2  0  0  0
  3 15  1  0  0  0
  5  1  1  0  0  0
 13  8  2  0  0  0
 13  1  1  0  0  0
 25 18  1  0  0  0
 16 17  1  0  0  0
 24 26  1  0  0  0
M  END
>  <minimizedAffinity>
-5.68868

>  <minimizedRMSD>
2.35293

$$$$
ChemDiv-G357-3503 MCULE-1461213858 MolPort-007-848-016 PubChem-20953231 ZINC000015772385


 31 33  0  0  0  0  0  0  0  0999 V2000
   17.6238   -9.9768   15.1317 C   0  0  0  0  0  0  0  0  0  0  0  0
   18.5462  -10.7502   15.5111 O   0  0  0  0  0  0  0  0  0  0  0  0
   16.8193   -9.2457   16.1239 C   0  0  0  0  0  0  0  0  0  0  0  0
   17.0363   -9.4325   17.4960 C   0  0  0  0  0  0  0  0  0  0  0  0
   16.2703   -8.7335   18.4333 C   0  0  0  0  0  0  0  0  0  0  0  0
   15.2791   -7.8406   18.0136 C   0  0  0  0  0  0  0  0  0  0  0  0
   15.0612   -7.6544   16.6406 C   0  0  0  0  0  0  0  0  0  0  0  0
   15.8264   -8.3521   15.7024 C   0  0  0  0  0  0  0  0  0  0  0  0
   14.5147   -7.1422   19.0059 N   0  0  0  0  0  0  0  0  0  0  0  0
   13.1659   -6.6637   18.8773 C   0  0  0  0  0  0  0  0  0  0  0  0
   12.5383   -6.8077   17.7920 O   0  0  0  0  0  0  0  0  0  0  0  0
   14.9616   -6.9727   19.8667 H   0  0  0  0  0  0  0  0  0  0  0  0
   12.5290   -5.9083   20.0152 C   0  0  0  0  0  0  0  0  0  0  0  0
   11.6698   -6.8300   20.8629 C   0  0  0  0  0  0  0  0  0  0  0  0
   13.6152   -5.3122   20.8879 C   0  0  0  0  0  0  0  0  0  0  0  0
   11.6452   -4.7863   19.4967 C   0  0  0  0  0  0  0  0  0  0  0  0
   17.3605   -9.8100   13.7701 O   0  0  0  0  0  0  0  0  0  0  0  0
   17.7850  -10.7567   12.8006 C   0  0  0  0  0  0  0  0  0  0  0  0
   17.5101   -8.9812    8.9861 N   0  0  0  0  0  0  0  0  0  0  0  0
   17.5640   -8.3500    7.8159 N   0  0  0  0  0  0  0  0  0  0  0  0
   18.7163   -7.6528    7.6671 C   0  0  0  0  0  0  0  0  0  0  0  0
   19.7390   -7.8144    9.0124 S   0  0  0  0  0  0  0  0  0  0  0  0
   18.6022   -8.8003    9.7583 C   0  0  0  0  0  0  0  0  0  0  0  0
   18.7118   -9.3704   10.9830 N   0  0  0  0  0  0  0  0  0  0  0  0
   17.6957  -10.1527   11.4450 C   0  0  0  0  0  0  0  0  0  0  0  0
   16.5431  -10.3522   10.6670 C   0  0  0  0  0  0  0  0  0  0  0  0
   16.4691   -9.7467    9.4076 C   0  0  0  0  0  0  0  0  0  0  0  0
   15.4509   -9.9090    8.6839 O   0  0  0  0  0  0  0  0  0  0  0  0
   19.0556   -6.8849    6.4352 C   0  0  0  0  0  0  0  0  0  0  0  0
   19.9875   -7.6832    5.5384 C   0  0  0  0  0  0  0  0  0  0  0  0
   19.2175   -8.3068    4.3895 C   0  0  0  0  0  0  0  0  0  0  0  0
 19 20  1  0  0  0
 20 21  2  0  0  0
 21 22  1  0  0  0
 22 23  1  0  0  0
 23 24  2  0  0  0
 24 25  1  0  0  0
 25 18  1  0  0  0
 18 17  1  0  0  0
 17  1  1  0  0  0
  1  2  2  0  0  0
  1  3  1  0  0  0
  3  4  2  0  0  0
  4  5  1  0  0  0
  5  6  2  0  0  0
  6  7  1  0  0  0
  7  8  2  0  0  0
  6  9  1  0  0  0
  9 10  1  0  0  0
 10 11  2  0  0  0
 10 13  1  0  0  0
 13 14  1  0  0  0
 13 15  1  0  0  0
 13 16  1  0  0  0
 25 26  2  0  0  0
 26 27  1  0  0  0
 27 28  2  0  0  0
 21 29  1  0  0  0
 29 30  1  0  0  0
 30 31  1  0  0  0
 23 19  1  0  0  0
  8  3  1  0  0  0
 27 19  1  0  0  0
  9 12  1  0  0  0
M  END
>  <minimizedAffinity>
-5.68512

>  <minimizedRMSD>
1.98879

$$$$
ChemDiv-L063-0033 MCULE-9648639472 MolPort-010-857-328 PubChem-53100233 ZINC000064991546


 31 34  0  0  0  0  0  0  0  0999 V2000
   15.3848   -8.6388   16.4510 C   0  0  0  0  0  0  0  0  0  0  0  0
   16.1288   -8.7669   17.5698 N   0  0  0  0  0  0  0  0  0  0  0  0
   15.6278   -8.1073   18.6123 N   0  0  0  0  0  0  0  0  0  0  0  0
   14.4808   -7.4511   18.3302 C   0  0  0  0  0  0  0  0  0  0  0  0
   14.0292   -7.6775   16.7215 S   0  0  0  0  0  0  0  0  0  0  0  0
   13.7410   -6.6517   19.3119 C   0  0  0  0  0  0  0  0  0  0  0  0
   13.1034   -5.6331   18.9314 O   0  0  0  0  0  0  0  0  0  0  0  0
   13.7458   -7.0475   20.6912 N   0  0  0  0  0  0  0  0  0  0  0  0
   14.2363   -7.8719   20.9129 H   0  0  0  0  0  0  0  0  0  0  0  0
   13.1090   -6.3647   21.7796 C   0  0  0  0  0  0  0  0  0  0  0  0
   11.7839   -5.9066   21.6978 C   0  0  0  0  0  0  0  0  0  0  0  0
   11.1970   -5.2431   22.7785 C   0  0  0  0  0  0  0  0  0  0  0  0
   11.9317   -5.0303   23.9475 C   0  0  0  0  0  0  0  0  0  0  0  0
   13.2527   -5.4804   24.0347 C   0  0  0  0  0  0  0  0  0  0  0  0
   13.8385   -6.1430   22.9526 C   0  0  0  0  0  0  0  0  0  0  0  0
   11.3633   -4.3906   24.9975 F   0  0  0  0  0  0  0  0  0  0  0  0
   15.7299   -9.2911   15.1583 C   0  0  0  0  0  0  0  0  0  0  0  0
   16.9550   -8.7160   14.6266 N   0  0  0  0  0  0  0  0  0  0  0  0
   16.7303   -7.9732   13.9647 H   0  0  0  0  0  0  0  0  0  0  0  0
   17.8298   -9.9753   13.8226 S   0  0  0  0  0  0  0  0  0  0  0  0
   19.2808   -9.8802   14.2043 O   0  0  0  0  0  0  0  0  0  0  0  0
   17.3114  -11.3196   14.2571 O   0  0  0  0  0  0  0  0  0  0  0  0
   17.6814   -9.7969   12.0739 C   0  0  0  0  0  0  0  0  0  0  0  0
   18.8252   -9.5058   11.3159 C   0  0  0  0  0  0  0  0  0  0  0  0
   18.7498   -9.3528    9.9222 C   0  0  0  0  0  0  0  0  0  0  0  0
   17.5239   -9.4763    9.2578 C   0  0  0  0  0  0  0  0  0  0  0  0
   16.3743   -9.7498    9.9990 C   0  0  0  0  0  0  0  0  0  0  0  0
   15.1514   -9.8766    9.4265 N   0  0  0  0  0  0  0  0  0  0  0  0
   14.2348  -10.1917   10.7679 S   0  0  0  0  0  0  0  0  0  0  0  0
   15.2781  -10.1835   12.0515 N   0  0  0  0  0  0  0  0  0  0  0  0
   16.4469   -9.9156   11.4137 C   0  0  0  0  0  0  0  0  0  0  0  0
 20 21  2  0  0  0
 20 22  2  0  0  0
 20 18  1  0  0  0
 18 17  1  0  0  0
 17  1  1  0  0  0
  1  2  2  0  0  0
  2  3  1  0  0  0
  3  4  2  0  0  0
  4  6  1  0  0  0
  6  7  2  0  0  0
  6  8  1  0  0  0
  8 10  1  0  0  0
 10 11  2  0  0  0
 11 12  1  0  0  0
 12 13  2  0  0  0
 13 14  1  0  0  0
 14 15  2  0  0  0
 13 16  1  0  0  0
  4  5  1  0  0  0
 20 23  1  0  0  0
 23 24  2  0  0  0
 24 25  1  0  0  0
 25 26  2  0  0  0
 26 27  1  0  0  0
 27 28  2  0  0  0
 28 29  1  0  0  0
 29 30  1  0  0  0
 30 31  2  0  0  0
  5  1  1  0  0  0
 31 23  1  0  0  0
 15 10  1  0  0  0
 31 27  1  0  0  0
 18 19  1  0  0  0
  8  9  1  0  0  0
M  END
>  <minimizedAffinity>
-5.67911

>  <minimizedRMSD>
3.51067

$$$$
ChemDiv-G357-2503 MCULE-5919284863 MolPort-007-847-834 PubChem-46343562 ZINC000021633507


 31 34  0  0  0  0  0  0  0  0999 V2000
   16.7787   -9.1172   13.2627 O   0  0  0  0  0  0  0  0  0  0  0  0
   17.3567   -9.3567   14.5113 C   0  0  0  0  0  0  0  0  0  0  0  0
   18.4749   -9.9366   14.5939 O   0  0  0  0  0  0  0  0  0  0  0  0
   16.6557   -8.9294   15.7328 C   0  0  0  0  0  0  0  0  0  0  0  0
   17.0822   -9.3728   16.9924 C   0  0  0  0  0  0  0  0  0  0  0  0
   16.4124   -8.9634   18.1490 C   0  0  0  0  0  0  0  0  0  0  0  0
   15.3097   -8.1074   18.0632 C   0  0  0  0  0  0  0  0  0  0  0  0
   14.8828   -7.6636   16.8030 C   0  0  0  0  0  0  0  0  0  0  0  0
   15.5515   -8.0720   15.6458 C   0  0  0  0  0  0  0  0  0  0  0  0
   14.6497   -7.7096   19.2725 N   0  0  0  0  0  0  0  0  0  0  0  0
   13.5590   -6.7867   19.3905 C   0  0  0  0  0  0  0  0  0  0  0  0
   13.0724   -6.2161   18.3784 O   0  0  0  0  0  0  0  0  0  0  0  0
   14.9797   -8.1120   20.1082 H   0  0  0  0  0  0  0  0  0  0  0  0
   13.0093   -6.4756   20.7410 C   0  0  0  0  0  0  0  0  0  0  0  0
   14.0893   -5.9082   21.6481 C   0  0  0  0  0  0  0  0  0  0  0  0
   14.4403   -6.8986   22.7429 C   0  0  0  0  0  0  0  0  0  0  0  0
   16.4940  -10.1691   12.3522 C   0  0  0  0  0  0  0  0  0  0  0  0
   17.8223   -9.0447    8.5000 N   0  0  0  0  0  0  0  0  0  0  0  0
   18.4212   -8.5690    7.3672 C   0  0  0  0  0  0  0  0  0  0  0  0
   17.9160   -8.7941    5.9684 C   0  0  0  0  0  0  0  0  0  0  0  0
   19.0368   -8.5890    4.9459 C   0  0  0  0  0  0  0  0  0  0  0  0
   19.7229   -7.2401    5.1734 C   0  0  0  0  0  0  0  0  0  0  0  0
   20.4110   -7.1839    6.5430 C   0  0  0  0  0  0  0  0  0  0  0  0
   19.5486   -7.7839    7.6115 C   0  0  0  0  0  0  0  0  0  0  0  0
   19.8374   -7.7108    9.2725 S   0  0  0  0  0  0  0  0  0  0  0  0
   18.4903   -8.6581    9.6151 C   0  0  0  0  0  0  0  0  0  0  0  0
   18.0794   -9.0182   10.8555 N   0  0  0  0  0  0  0  0  0  0  0  0
   16.9700   -9.7942   10.9946 C   0  0  0  0  0  0  0  0  0  0  0  0
   16.2496  -10.2049    9.8650 C   0  0  0  0  0  0  0  0  0  0  0  0
   16.6990   -9.8177    8.5986 C   0  0  0  0  0  0  0  0  0  0  0  0
   16.0631  -10.1859    7.5754 O   0  0  0  0  0  0  0  0  0  0  0  0
 18 19  1  0  0  0
 19 20  1  0  0  0
 20 21  1  0  0  0
 21 22  1  0  0  0
 22 23  1  0  0  0
 23 24  1  0  0  0
 24 25  1  0  0  0
 25 26  1  0  0  0
 26 27  2  0  0  0
 27 28  1  0  0  0
 28 17  1  0  0  0
 17  1  1  0  0  0
  1  2  1  0  0  0
  2  3  2  0  0  0
  2  4  1  0  0  0
  4  5  2  0  0  0
  5  6  1  0  0  0
  6  7  2  0  0  0
  7  8  1  0  0  0
  8  9  2  0  0  0
  7 10  1  0  0  0
 10 11  1  0  0  0
 11 14  1  0  0  0
 14 15  1  0  0  0
 15 16  1  0  0  0
 11 12  2  0  0  0
 28 29  2  0  0  0
 29 30  1  0  0  0
 30 31  2  0  0  0
 26 18  1  0  0  0
  9  4  1  0  0  0
 30 18  1  0  0  0
 24 19  2  0  0  0
 10 13  1  0  0  0
M  END
>  <minimizedAffinity>
-5.65713

>  <minimizedRMSD>
2.05187

$$$$
ChemDiv-G357-1796 MCULE-9160351703 MolPort-007-847-663 PubChem-46343471 ZINC000021632930 ZINC21632930


 33 36  0  0  0  0  0  0  0  0999 V2000
   15.3768   -7.9463   17.8935 C   0  0  0  0  0  0  0  0  0  0  0  0
   15.1156   -7.8279   16.5205 C   0  0  0  0  0  0  0  0  0  0  0  0
   15.7292   -8.6895   15.6074 C   0  0  0  0  0  0  0  0  0  0  0  0
   16.6121   -9.6811   16.0542 C   0  0  0  0  0  0  0  0  0  0  0  0
   16.8724   -9.7997   17.4266 C   0  0  0  0  0  0  0  0  0  0  0  0
   16.2575   -8.9375   18.3387 C   0  0  0  0  0  0  0  0  0  0  0  0
   13.3807   -7.0575   19.2411 C   0  0  0  0  0  0  0  0  0  0  0  0
   12.5526   -7.8399   18.7003 O   0  0  0  0  0  0  0  0  0  0  0  0
   14.7651   -7.0819   18.8606 N   0  0  0  0  0  0  0  0  0  0  0  0
   15.3570   -6.4370   19.3112 H   0  0  0  0  0  0  0  0  0  0  0  0
   12.8599   -5.3784   22.5955 C   0  0  0  0  0  0  0  0  0  0  0  0
   12.0550   -4.2960   22.2285 C   0  0  0  0  0  0  0  0  0  0  0  0
   11.6829   -4.1137   20.8942 C   0  0  0  0  0  0  0  0  0  0  0  0
   12.1152   -5.0152   19.9183 C   0  0  0  0  0  0  0  0  0  0  0  0
   12.9230   -6.1063   20.2690 C   0  0  0  0  0  0  0  0  0  0  0  0
   13.2913   -6.2815   21.6103 C   0  0  0  0  0  0  0  0  0  0  0  0
   14.5267   -5.8959   24.3481 C   0  0  0  0  0  0  0  0  0  0  0  0
   13.2153   -5.5333   23.9382 O   0  0  0  0  0  0  0  0  0  0  0  0
   17.2562  -10.5856   15.0882 C   0  0  0  0  0  0  0  0  0  0  0  0
   17.9414  -11.5637   15.4971 O   0  0  0  0  0  0  0  0  0  0  0  0
   17.1054  -10.3553   13.7188 O   0  0  0  0  0  0  0  0  0  0  0  0
   17.9030  -11.0230   12.7522 C   0  0  0  0  0  0  0  0  0  0  0  0
   17.8303  -10.2945   11.4582 C   0  0  0  0  0  0  0  0  0  0  0  0
   16.6964  -10.4268   10.6456 C   0  0  0  0  0  0  0  0  0  0  0  0
   16.6366   -9.7090    9.4463 C   0  0  0  0  0  0  0  0  0  0  0  0
   15.6238   -9.8237    8.7062 O   0  0  0  0  0  0  0  0  0  0  0  0
   17.6820   -8.8948    9.1053 N   0  0  0  0  0  0  0  0  0  0  0  0
   17.8175   -8.1128    7.9889 C   0  0  0  0  0  0  0  0  0  0  0  0
   16.7949   -8.0201    6.9060 C   0  0  0  0  0  0  0  0  0  0  0  0
   19.0064   -7.3805    7.9178 C   0  0  0  0  0  0  0  0  0  0  0  0
   19.9044   -7.7370    9.3076 S   0  0  0  0  0  0  0  0  0  0  0  0
   18.7560   -8.7871    9.9188 C   0  0  0  0  0  0  0  0  0  0  0  0
   18.8458   -9.4677   11.0875 N   0  0  0  0  0  0  0  0  0  0  0  0
 17 18  1  0  0  0
 18 11  1  0  0  0
 11 12  2  0  0  0
 12 13  1  0  0  0
 13 14  2  0  0  0
 14 15  1  0  0  0
 15 16  2  0  0  0
 15  7  1  0  0  0
 16 11  1  0  0  0
  7  8  2  0  0  0
  7  9  1  0  0  0
  9  1  1  0  0  0
  1  2  2  0  0  0
  2  3  1  0  0  0
  3  4  2  0  0  0
  4  5  1  0  0  0
  4 19  1  0  0  0
  5  6  2  0  0  0
  6  1  1  0  0  0
 19 20  2  0  0  0
 19 21  1  0  0  0
 21 22  1  0  0  0
 22 23  1  0  0  0
 23 24  2  0  0  0
 24 25  1  0  0  0
 25 26  2  0  0  0
 25 27  1  0  0  0
 27 28  1  0  0  0
 28 29  1  0  0  0
 28 30  2  0  0  0
 30 31  1  0  0  0
 31 32  1  0  0  0
 32 33  2  0  0  0
 32 27  1  0  0  0
 33 23  1  0  0  0
  9 10  1  0  0  0
M  END
>  <minimizedAffinity>
-5.65609

>  <minimizedRMSD>
2.07703

$$$$
ChemDiv-G357-1273 CHEMBL1553827 MCULE-6369907800 MolPort-007-847-473 PubChem-16027448 ZINC000008607053 ZINC08607053


 35 39  0  0  0  0  0  0  0  0999 V2000
   16.5510   -8.9593   16.5061 C   0  0  0  0  0  0  0  0  0  0  0  0
   16.1294   -8.2323   15.3829 C   0  0  0  0  0  0  0  0  0  0  0  0
   16.5000   -8.6382   14.0980 C   0  0  0  0  0  0  0  0  0  0  0  0
   17.2969   -9.7761   13.9186 C   0  0  0  0  0  0  0  0  0  0  0  0
   17.7190  -10.5020   15.0412 C   0  0  0  0  0  0  0  0  0  0  0  0
   17.3477  -10.0946   16.3258 C   0  0  0  0  0  0  0  0  0  0  0  0
   14.2191   -7.3831   17.3786 O   0  0  0  0  0  0  0  0  0  0  0  0
   15.0519   -7.7951   18.2287 C   0  0  0  0  0  0  0  0  0  0  0  0
   16.1908   -8.5737   17.8396 N   0  0  0  0  0  0  0  0  0  0  0  0
   16.7874   -8.8749   18.5625 H   0  0  0  0  0  0  0  0  0  0  0  0
   14.8280   -7.5019   19.6686 C   0  0  0  0  0  0  0  0  0  0  0  0
   13.4650   -7.7384   19.9956 O   0  0  0  0  0  0  0  0  0  0  0  0
   12.6277   -6.7435   20.5068 C   0  0  0  0  0  0  0  0  0  0  0  0
   11.6803   -6.1552   19.6615 C   0  0  0  0  0  0  0  0  0  0  0  0
   10.8299   -5.1547   20.1423 C   0  0  0  0  0  0  0  0  0  0  0  0
   10.9232   -4.7368   21.4730 C   0  0  0  0  0  0  0  0  0  0  0  0
   11.8666   -5.3193   22.3239 C   0  0  0  0  0  0  0  0  0  0  0  0
   12.7170   -6.3197   21.8437 C   0  0  0  0  0  0  0  0  0  0  0  0
   17.6840  -10.2001   12.5634 C   0  0  0  0  0  0  0  0  0  0  0  0
   18.4286  -11.2070   12.4043 O   0  0  0  0  0  0  0  0  0  0  0  0
   17.2235   -9.4836   11.4563 O   0  0  0  0  0  0  0  0  0  0  0  0
   16.6387  -10.1280   10.3340 C   0  0  0  0  0  0  0  0  0  0  0  0
   17.0077   -9.3975    9.0928 C   0  0  0  0  0  0  0  0  0  0  0  0
   16.0962   -8.4988    8.5138 C   0  0  0  0  0  0  0  0  0  0  0  0
   16.4784   -7.8016    7.3625 C   0  0  0  0  0  0  0  0  0  0  0  0
   15.6827   -6.9917    6.8169 O   0  0  0  0  0  0  0  0  0  0  0  0
   17.7193   -8.0134    6.8496 N   0  0  0  0  0  0  0  0  0  0  0  0
   18.2035   -7.4178    5.7625 N   0  0  0  0  0  0  0  0  0  0  0  0
   19.4727   -7.8093    5.4872 C   0  0  0  0  0  0  0  0  0  0  0  0
   20.0367   -8.9593    6.6044 S   0  0  0  0  0  0  0  0  0  0  0  0
   18.5775   -8.8775    7.4310 C   0  0  0  0  0  0  0  0  0  0  0  0
   18.2445   -9.5716    8.5465 N   0  0  0  0  0  0  0  0  0  0  0  0
   20.2370   -7.3434    4.2915 C   0  0  0  0  0  0  0  0  0  0  0  0
   21.6920   -7.1251    4.6640 C   0  0  0  0  0  0  0  0  0  0  0  0
   20.7634   -5.9398    4.5286 C   0  0  0  0  0  0  0  0  0  0  0  0
  7  8  2  0  0  0
  8 11  1  0  0  0
  8  9  1  0  0  0
 11 12  1  0  0  0
 12 13  1  0  0  0
 13 14  2  0  0  0
 14 15  1  0  0  0
 15 16  2  0  0  0
 16 17  1  0  0  0
 17 18  2  0  0  0
 18 13  1  0  0  0
  9  1  1  0  0  0
  1  2  2  0  0  0
  2  3  1  0  0  0
  3  4  2  0  0  0
  4  5  1  0  0  0
  4 19  1  0  0  0
  5  6  2  0  0  0
  6  1  1  0  0  0
 19 20  2  0  0  0
 19 21  1  0  0  0
 21 22  1  0  0  0
 22 23  1  0  0  0
 23 24  2  0  0  0
 24 25  1  0  0  0
 25 26  2  0  0  0
 25 27  1  0  0  0
 27 28  1  0  0  0
 28 29  2  0  0  0
 29 30  1  0  0  0
 29 33  1  0  0  0
 30 31  1  0  0  0
 31 32  2  0  0  0
 31 27  1  0  0  0
 32 23  1  0  0  0
 33 34  1  0  0  0
 34 35  1  0  0  0
 35 33  1  0  0  0
  9 10  1  0  0  0
M  END
>  <minimizedAffinity>
-5.65463

>  <minimizedRMSD>
1.83362

$$$$
ChemDiv-G756-0789 MCULE-4501275237 MolPort-007-879-405 PubChem-46356217 ZINC000033067911 ZINC33067911


 35 38  0  0  0  0  0  0  0  0999 V2000
   16.0082   -8.7726   17.3965 C   0  0  0  0  0  0  0  0  0  0  0  0
   17.2778   -8.7038   17.9701 C   0  0  0  0  0  0  0  0  0  0  0  0
   18.4169   -8.8609   17.1804 C   0  0  0  0  0  0  0  0  0  0  0  0
   18.3061   -9.0904   15.8055 C   0  0  0  0  0  0  0  0  0  0  0  0
   19.5765   -9.2438   15.0424 C   0  0  0  0  0  0  0  0  0  0  0  0
   17.0197   -9.1639   15.2080 C   0  0  0  0  0  0  0  0  0  0  0  0
   15.8908   -9.0020   16.0194 C   0  0  0  0  0  0  0  0  0  0  0  0
   13.8137   -7.6390   18.0814 C   0  0  0  0  0  0  0  0  0  0  0  0
   13.8237   -6.8126   17.1308 O   0  0  0  0  0  0  0  0  0  0  0  0
   14.8600   -8.6058   18.2390 N   0  0  0  0  0  0  0  0  0  0  0  0
   14.7823   -9.2189   19.0053 H   0  0  0  0  0  0  0  0  0  0  0  0
   12.7075   -7.5937   19.0787 C   0  0  0  0  0  0  0  0  0  0  0  0
   12.6669   -6.3203   19.7153 O   0  0  0  0  0  0  0  0  0  0  0  0
   14.6911   -5.3965   23.2911 C   0  0  0  0  0  0  0  0  0  0  0  0
   13.5293   -4.7087   22.9263 C   0  0  0  0  0  0  0  0  0  0  0  0
   12.8658   -5.0232   21.7366 C   0  0  0  0  0  0  0  0  0  0  0  0
   13.3563   -6.0290   20.8978 C   0  0  0  0  0  0  0  0  0  0  0  0
   14.5208   -6.7228   21.2633 C   0  0  0  0  0  0  0  0  0  0  0  0
   15.1848   -6.4081   22.4517 C   0  0  0  0  0  0  0  0  0  0  0  0
   16.6514   -4.5342   24.5289 C   0  0  0  0  0  0  0  0  0  0  0  0
   15.3310   -5.0579   24.4865 O   0  0  0  0  0  0  0  0  0  0  0  0
   16.7845   -9.3904   13.8423 O   0  0  0  0  0  0  0  0  0  0  0  0
   17.4456  -10.3586   13.0403 C   0  0  0  0  0  0  0  0  0  0  0  0
   17.3146   -9.9906   11.6061 C   0  0  0  0  0  0  0  0  0  0  0  0
   16.1600  -10.3220   10.9053 C   0  0  0  0  0  0  0  0  0  0  0  0
   16.0519   -9.9393    9.5699 C   0  0  0  0  0  0  0  0  0  0  0  0
   15.0068  -10.2438    8.9318 O   0  0  0  0  0  0  0  0  0  0  0  0
   17.0670   -9.2435    8.9685 N   0  0  0  0  0  0  0  0  0  0  0  0
   16.9532   -8.8717    7.6585 C   0  0  0  0  0  0  0  0  0  0  0  0
   17.9717   -8.1606    7.0245 C   0  0  0  0  0  0  0  0  0  0  0  0
   19.1185   -7.8268    7.7400 C   0  0  0  0  0  0  0  0  0  0  0  0
   19.2405   -8.2024    9.0764 C   0  0  0  0  0  0  0  0  0  0  0  0
   20.4780   -7.8341    9.8228 C   0  0  0  0  0  0  0  0  0  0  0  0
   18.1976   -8.9192    9.6880 C   0  0  0  0  0  0  0  0  0  0  0  0
   18.3023   -9.2931   10.9923 N   0  0  0  0  0  0  0  0  0  0  0  0
 20 21  1  0  0  0
 21 14  1  0  0  0
 14 15  2  0  0  0
 15 16  1  0  0  0
 16 17  2  0  0  0
 17 13  1  0  0  0
 17 18  1  0  0  0
 13 12  1  0  0  0
 12  8  1  0  0  0
  8  9  2  0  0  0
  8 10  1  0  0  0
 10  1  1  0  0  0
  1  2  2  0  0  0
  2  3  1  0  0  0
  3  4  2  0  0  0
  4  5  1  0  0  0
  4  6  1  0  0  0
  6 22  1  0  0  0
  6  7  2  0  0  0
 22 23  1  0  0  0
 23 24  1  0  0  0
 24 25  2  0  0  0
 25 26  1  0  0  0
 26 27  2  0  0  0
 26 28  1  0  0  0
 28 29  1  0  0  0
 29 30  2  0  0  0
 30 31  1  0  0  0
 31 32  2  0  0  0
 32 33  1  0  0  0
 32 34  1  0  0  0
 34 35  2  0  0  0
 34 28  1  0  0  0
 35 24  1  0  0  0
  7  1  1  0  0  0
 18 19  2  0  0  0
 19 14  1  0  0  0
 10 11  1  0  0  0
M  END
>  <minimizedAffinity>
-5.65197

>  <minimizedRMSD>
2.71221

$$$$
ChemDiv-G756-0850 MCULE-6549525235 MolPort-007-879-440 PubChem-46356252 ZINC000033067946 ZINC33067946


 37 40  0  0  0  0  0  0  0  0999 V2000
   17.4189   -9.9045   16.5911 C   0  0  0  0  0  0  0  0  0  0  0  0
   17.8918  -11.1900   16.8679 C   0  0  0  0  0  0  0  0  0  0  0  0
   18.3101  -12.0283   15.8313 C   0  0  0  0  0  0  0  0  0  0  0  0
   18.2589  -11.5883   14.5059 C   0  0  0  0  0  0  0  0  0  0  0  0
   18.7100  -12.5037   13.4207 C   0  0  0  0  0  0  0  0  0  0  0  0
   17.7904  -10.2975   14.2112 C   0  0  0  0  0  0  0  0  0  0  0  0
   17.3724   -9.4636   15.2611 C   0  0  0  0  0  0  0  0  0  0  0  0
   15.4901   -7.6231   18.9882 N   0  0  0  0  0  0  0  0  0  0  0  0
   15.7251   -8.4256   17.8241 C   0  0  0  0  0  0  0  0  0  0  0  0
   14.8341   -8.5559   16.9424 O   0  0  0  0  0  0  0  0  0  0  0  0
   16.9951   -9.0747   17.6814 N   0  0  0  0  0  0  0  0  0  0  0  0
   16.2406   -7.5313   19.6186 H   0  0  0  0  0  0  0  0  0  0  0  0
   17.6448   -8.9363   18.4081 H   0  0  0  0  0  0  0  0  0  0  0  0
   11.9148   -5.6068   20.0822 C   0  0  0  0  0  0  0  0  0  0  0  0
   12.1206   -5.9821   18.7483 C   0  0  0  0  0  0  0  0  0  0  0  0
   13.2933   -6.6443   18.3753 C   0  0  0  0  0  0  0  0  0  0  0  0
   14.2767   -6.9397   19.3314 C   0  0  0  0  0  0  0  0  0  0  0  0
   14.0688   -6.5666   20.6632 C   0  0  0  0  0  0  0  0  0  0  0  0
   12.8963   -5.9043   21.0378 C   0  0  0  0  0  0  0  0  0  0  0  0
   10.6759   -4.9138   20.4725 C   0  0  0  0  0  0  0  0  0  0  0  0
   10.3443   -4.8504   21.6888 O   0  0  0  0  0  0  0  0  0  0  0  0
   10.0853   -3.0057   19.0320 C   0  0  0  0  0  0  0  0  0  0  0  0
    9.8687   -4.3313   19.4920 O   0  0  0  0  0  0  0  0  0  0  0  0
   17.7466   -9.8626   12.8816 O   0  0  0  0  0  0  0  0  0  0  0  0
   16.5852   -9.9836   12.0705 C   0  0  0  0  0  0  0  0  0  0  0  0
   16.9282   -9.6670   10.6593 C   0  0  0  0  0  0  0  0  0  0  0  0
   16.1361  -10.1541    9.6258 C   0  0  0  0  0  0  0  0  0  0  0  0
   16.4933   -9.8619    8.3109 C   0  0  0  0  0  0  0  0  0  0  0  0
   15.7725  -10.2999    7.3723 O   0  0  0  0  0  0  0  0  0  0  0  0
   17.6107   -9.1135    8.0507 N   0  0  0  0  0  0  0  0  0  0  0  0
   17.9537   -8.8310    6.7587 C   0  0  0  0  0  0  0  0  0  0  0  0
   19.0875   -8.0726    6.4677 C   0  0  0  0  0  0  0  0  0  0  0  0
   19.8779   -7.5990    7.5114 C   0  0  0  0  0  0  0  0  0  0  0  0
   19.5324   -7.8823    8.8316 C   0  0  0  0  0  0  0  0  0  0  0  0
   20.3939   -7.3645    9.9331 C   0  0  0  0  0  0  0  0  0  0  0  0
   18.3833   -8.6480    9.0933 C   0  0  0  0  0  0  0  0  0  0  0  0
   18.0330   -8.9325   10.3772 N   0  0  0  0  0  0  0  0  0  0  0  0
 22 23  1  0  0  0
 23 20  1  0  0  0
 20 21  2  0  0  0
 20 14  1  0  0  0
 14 15  2  0  0  0
 15 16  1  0  0  0
 16 17  2  0  0  0
 17  8  1  0  0  0
 17 18  1  0  0  0
  8  9  1  0  0  0
  9 10  2  0  0  0
  9 11  1  0  0  0
 11  1  1  0  0  0
  1  2  2  0  0  0
  2  3  1  0  0  0
  3  4  2  0  0  0
  4  5  1  0  0  0
  4  6  1  0  0  0
  6 24  1  0  0  0
  6  7  2  0  0  0
 24 25  1  0  0  0
 25 26  1  0  0  0
 26 27  2  0  0  0
 27 28  1  0  0  0
 28 29  2  0  0  0
 28 30  1  0  0  0
 30 31  1  0  0  0
 31 32  2  0  0  0
 32 33  1  0  0  0
 33 34  2  0  0  0
 34 35  1  0  0  0
 34 36  1  0  0  0
 36 37  2  0  0  0
 36 30  1  0  0  0
 37 26  1  0  0  0
  7  1  1  0  0  0
 18 19  2  0  0  0
 19 14  1  0  0  0
  8 12  1  0  0  0
 11 13  1  0  0  0
M  END
>  <minimizedAffinity>
-5.59023

>  <minimizedRMSD>
1.25313

$$$$
ChemDiv-D549-0042 MCULE-8203441207 MolPort-009-676-626 PubChem-52991769 ZINC000064370054 ZINC64370054


 29 32  0  0  0  0  0  0  0  0999 V2000
   18.9033  -10.6582   12.9429 C   0  0  0  0  0  0  0  0  0  0  0  0
   17.5268  -10.1905   12.9959 N   0  0  0  0  0  0  0  0  0  0  0  0
   16.6712  -10.3068   14.0258 C   0  0  0  0  0  0  0  0  0  0  0  0
   15.4278   -9.9239   13.6814 N   0  0  0  0  0  0  0  0  0  0  0  0
   15.4780   -9.5591   12.4078 N   0  0  0  0  0  0  0  0  0  0  0  0
   16.7531   -9.7160   11.9987 C   0  0  0  0  0  0  0  0  0  0  0  0
   17.1880   -9.4554   10.6152 C   0  0  0  0  0  0  0  0  0  0  0  0
   18.2827   -8.6842   10.1987 C   0  0  0  0  0  0  0  0  0  0  0  0
   19.1357   -7.9666   11.0864 N   0  0  0  0  0  0  0  0  0  0  0  0
   18.3850   -8.5925    8.8075 C   0  0  0  0  0  0  0  0  0  0  0  0
   19.3440   -7.8936    8.0747 C   0  0  0  0  0  0  0  0  0  0  0  0
   19.2575   -7.9175    6.6738 C   0  0  0  0  0  0  0  0  0  0  0  0
   18.2168   -8.6310    6.0478 C   0  0  0  0  0  0  0  0  0  0  0  0
   17.2891   -9.2991    6.7930 N   0  0  0  0  0  0  0  0  0  0  0  0
   17.3821   -9.2752    8.1456 C   0  0  0  0  0  0  0  0  0  0  0  0
   16.3418   -9.9946    9.2468 S   0  0  0  0  0  0  0  0  0  0  0  0
   19.0259   -8.0630   12.0600 H   0  0  0  0  0  0  0  0  0  0  0  0
   19.8348   -7.3744   10.7261 H   0  0  0  0  0  0  0  0  0  0  0  0
   17.1020  -10.9391   15.6472 S   0  0  0  0  0  0  0  0  0  0  0  0
   17.8224   -9.3561   16.1838 C   0  0  0  0  0  0  0  0  0  0  0  0
   16.7507   -8.3875   16.5484 C   0  0  0  0  0  0  0  0  0  0  0  0
   16.3626   -7.5428   15.6983 O   0  0  0  0  0  0  0  0  0  0  0  0
   16.1768   -8.4194   17.8572 N   0  0  0  0  0  0  0  0  0  0  0  0
   16.4977   -9.0947   18.4977 H   0  0  0  0  0  0  0  0  0  0  0  0
   15.1370   -7.4934   18.2806 C   0  0  0  0  0  0  0  0  0  0  0  0
   13.7986   -7.9538   17.7410 C   0  0  0  0  0  0  0  0  0  0  0  0
   12.8076   -7.7219   18.8568 C   0  0  0  0  0  0  0  0  0  0  0  0
   13.6000   -7.9057   20.1297 C   0  0  0  0  0  0  0  0  0  0  0  0
   15.0191   -7.4893   19.7974 C   0  0  0  0  0  0  0  0  0  0  0  0
  1  2  1  0  0  0
  2  3  1  0  0  0
  3 19  1  0  0  0
  3  4  2  0  0  0
 19 20  1  0  0  0
 20 21  1  0  0  0
 21 22  2  0  0  0
 21 23  1  0  0  0
 23 25  1  0  0  0
 25 26  1  0  0  0
 26 27  1  0  0  0
 27 28  1  0  0  0
 28 29  1  0  0  0
 29 25  1  0  0  0
  4  5  1  0  0  0
  5  6  2  0  0  0
  6  7  1  0  0  0
  6  2  1  0  0  0
  7  8  2  0  0  0
  8  9  1  0  0  0
  8 10  1  0  0  0
 10 11  2  0  0  0
 11 12  1  0  0  0
 12 13  2  0  0  0
 13 14  1  0  0  0
 14 15  2  0  0  0
 15 16  1  0  0  0
 15 10  1  0  0  0
 16  7  1  0  0  0
 23 24  1  0  0  0
  9 17  1  0  0  0
  9 18  1  0  0  0
M  END
>  <minimizedAffinity>
-5.58388

>  <minimizedRMSD>
0.89650

$$$$
ChemDiv-G357-4001 CHEMBL2357184 MCULE-2593683930 MolPort-007-848-111 PubChem-16027391 ZINC000008606919


 33 35  0  0  0  0  0  0  0  0999 V2000
   17.0079   -9.8074   13.9151 O   0  0  0  0  0  0  0  0  0  0  0  0
   17.6257   -9.4411   15.1129 C   0  0  0  0  0  0  0  0  0  0  0  0
   18.8748   -9.5630   15.2481 O   0  0  0  0  0  0  0  0  0  0  0  0
   16.8132   -8.9107   16.2194 C   0  0  0  0  0  0  0  0  0  0  0  0
   15.6460   -8.1851   15.9494 C   0  0  0  0  0  0  0  0  0  0  0  0
   14.8712   -7.6798   16.9970 C   0  0  0  0  0  0  0  0  0  0  0  0
   15.2544   -7.8923   18.3293 C   0  0  0  0  0  0  0  0  0  0  0  0
   16.4192   -8.6180   18.5979 C   0  0  0  0  0  0  0  0  0  0  0  0
   17.1948   -9.1247   17.5511 C   0  0  0  0  0  0  0  0  0  0  0  0
   14.4853   -7.3904   19.4308 N   0  0  0  0  0  0  0  0  0  0  0  0
   13.4138   -6.4352   19.3707 C   0  0  0  0  0  0  0  0  0  0  0  0
   13.0823   -5.9142   18.2700 O   0  0  0  0  0  0  0  0  0  0  0  0
   14.7162   -7.7371   20.3228 H   0  0  0  0  0  0  0  0  0  0  0  0
   12.7233   -6.0235   20.6450 C   0  0  0  0  0  0  0  0  0  0  0  0
   11.7859   -7.1242   21.1049 C   0  0  0  0  0  0  0  0  0  0  0  0
   13.7611   -5.7800   21.7226 C   0  0  0  0  0  0  0  0  0  0  0  0
   11.9092   -4.7523   20.4601 C   0  0  0  0  0  0  0  0  0  0  0  0
   17.6071  -10.7225   13.0093 C   0  0  0  0  0  0  0  0  0  0  0  0
   17.4552   -9.0768    9.1302 N   0  0  0  0  0  0  0  0  0  0  0  0
   17.5461   -8.4828    7.9426 N   0  0  0  0  0  0  0  0  0  0  0  0
   18.7203   -7.8229    7.7930 C   0  0  0  0  0  0  0  0  0  0  0  0
   19.7001   -7.9409    9.1741 S   0  0  0  0  0  0  0  0  0  0  0  0
   18.5314   -8.8877    9.9224 C   0  0  0  0  0  0  0  0  0  0  0  0
   18.6002   -9.4144   11.1693 N   0  0  0  0  0  0  0  0  0  0  0  0
   17.5595  -10.1632   11.6326 C   0  0  0  0  0  0  0  0  0  0  0  0
   16.4231  -10.3708   10.8330 C   0  0  0  0  0  0  0  0  0  0  0  0
   16.3899   -9.8078    9.5525 C   0  0  0  0  0  0  0  0  0  0  0  0
   15.3866   -9.9772    8.8101 O   0  0  0  0  0  0  0  0  0  0  0  0
   19.0604   -7.0250    6.5847 C   0  0  0  0  0  0  0  0  0  0  0  0
   19.3601   -7.9546    5.4257 C   0  0  0  0  0  0  0  0  0  0  0  0
   19.9767   -7.2387    4.4008 O   0  0  0  0  0  0  0  0  0  0  0  0
   21.2746   -7.0193    4.8598 C   0  0  0  0  0  0  0  0  0  0  0  0
   21.8380   -5.7748    4.2060 C   0  0  0  0  0  0  0  0  0  0  0  0
 19 20  1  0  0  0
 20 21  2  0  0  0
 21 22  1  0  0  0
 22 23  1  0  0  0
 23 24  2  0  0  0
 24 25  1  0  0  0
 25 18  1  0  0  0
 18  1  1  0  0  0
  1  2  1  0  0  0
  2  3  2  0  0  0
  2  4  1  0  0  0
  4  5  2  0  0  0
  5  6  1  0  0  0
  6  7  2  0  0  0
  7  8  1  0  0  0
  8  9  2  0  0  0
  7 10  1  0  0  0
 10 11  1  0  0  0
 11 12  2  0  0  0
 11 14  1  0  0  0
 14 15  1  0  0  0
 14 16  1  0  0  0
 14 17  1  0  0  0
 25 26  2  0  0  0
 26 27  1  0  0  0
 27 28  2  0  0  0
 21 29  1  0  0  0
 29 30  1  0  0  0
 30 31  1  0  0  0
 31 32  1  0  0  0
 32 33  1  0  0  0
 23 19  1  0  0  0
  9  4  1  0  0  0
 27 19  1  0  0  0
 10 13  1  0  0  0
M  END
>  <minimizedAffinity>
-5.54603

>  <minimizedRMSD>
2.62380

$$$$
ChemDiv-8009-4269 MCULE-3808051349 MolPort-002-705-165 PubChem-1821853 ZINC000002186344 ZINC02186344


 30 32  0  0  0  0  0  0  0  0999 V2000
   15.7505   -8.7817   15.4377 N   0  0  0  0  0  0  0  0  0  0  0  0
   17.0926   -8.9348   14.9568 C   0  0  0  0  0  0  0  0  0  0  0  0
   18.0825   -8.7059   15.7008 O   0  0  0  0  0  0  0  0  0  0  0  0
   15.0279   -9.0325   14.8179 H   0  0  0  0  0  0  0  0  0  0  0  0
   14.5112   -7.3256   19.2235 C   0  0  0  0  0  0  0  0  0  0  0  0
   15.7612   -7.9403   19.0971 C   0  0  0  0  0  0  0  0  0  0  0  0
   16.1801   -8.4261   17.8554 C   0  0  0  0  0  0  0  0  0  0  0  0
   15.3530   -8.3008   16.7288 C   0  0  0  0  0  0  0  0  0  0  0  0
   14.1056   -7.6814   16.8613 C   0  0  0  0  0  0  0  0  0  0  0  0
   13.6853   -7.1949   18.1026 C   0  0  0  0  0  0  0  0  0  0  0  0
   13.1038   -7.9283   21.6211 N   0  0  0  0  0  0  0  0  0  0  0  0
   13.9835   -6.7047   20.7766 S   0  0  0  0  0  0  0  0  0  0  0  0
   15.1773   -6.3092   21.5997 O   0  0  0  0  0  0  0  0  0  0  0  0
   13.1038   -5.5052   20.5661 O   0  0  0  0  0  0  0  0  0  0  0  0
   12.7978   -7.5653   22.5239 H   0  0  0  0  0  0  0  0  0  0  0  0
   13.7045   -8.7397   21.7668 H   0  0  0  0  0  0  0  0  0  0  0  0
   17.3237   -9.4064   13.5616 C   0  0  0  0  0  0  0  0  0  0  0  0
   16.1426  -10.0052   13.0405 O   0  0  0  0  0  0  0  0  0  0  0  0
   15.8291  -10.0027   11.6929 N   0  0  0  0  0  0  0  0  0  0  0  0
   14.6893  -10.4808   11.2065 N   0  0  0  0  0  0  0  0  0  0  0  0
   14.6553  -10.3696    9.8790 N   0  0  0  0  0  0  0  0  0  0  0  0
   15.8250   -9.8026    9.5293 C   0  0  0  0  0  0  0  0  0  0  0  0
   16.2893   -9.4853    8.2579 C   0  0  0  0  0  0  0  0  0  0  0  0
   17.5718   -8.9103    8.1695 C   0  0  0  0  0  0  0  0  0  0  0  0
   18.3507   -8.6738    9.3321 C   0  0  0  0  0  0  0  0  0  0  0  0
   17.8364   -9.0176   10.6029 C   0  0  0  0  0  0  0  0  0  0  0  0
   16.5612   -9.5743   10.6503 C   0  0  0  0  0  0  0  0  0  0  0  0
   19.6543   -8.0888    9.2140 N   0  0  0  0  0  0  0  0  0  0  0  0
   20.0681   -7.5499    8.0173 O   0  0  0  0  0  0  0  0  0  0  0  0
   20.4293   -8.0642   10.1927 O   0  0  0  0  0  0  0  0  0  0  0  0
 11 12  1  0  0  0
 12 13  2  0  0  0
 12 14  2  0  0  0
 12  5  1  0  0  0
  5  6  2  0  0  0
  6  7  1  0  0  0
  7  8  2  0  0  0
  8  1  1  0  0  0
  8  9  1  0  0  0
  1  2  1  0  0  0
  2  3  2  0  0  0
  2 17  1  0  0  0
 17 18  1  0  0  0
 18 19  1  0  0  0
 19 20  1  0  0  0
 20 21  2  0  0  0
 21 22  1  0  0  0
 22 23  2  0  0  0
 23 24  1  0  0  0
 24 25  2  0  0  0
 25 26  1  0  0  0
 25 28  1  0  0  0
 26 27  2  0  0  0
 27 19  1  0  0  0
 27 22  1  0  0  0
 28 29  1  0  0  0
 28 30  2  0  0  0
  9 10  2  0  0  0
 10  5  1  0  0  0
 11 15  1  0  0  0
 11 16  1  0  0  0
  1  4  1  0  0  0
M  CHG 1  28   1
M  CHG 1  29  -1
M  END
>  <minimizedAffinity>
-5.50813

>  <minimizedRMSD>
3.50875

$$$$
ChemDiv-G756-0432 MCULE-2771182881 MolPort-007-879-158 PubChem-46356025 ZINC000021156767 ZINC21156767


 34 37  0  0  0  0  0  0  0  0999 V2000
   17.1484   -9.7764   16.7863 C   0  0  0  0  0  0  0  0  0  0  0  0
   17.7508  -10.9735   17.1744 C   0  0  0  0  0  0  0  0  0  0  0  0
   18.1975  -11.8813   16.2139 C   0  0  0  0  0  0  0  0  0  0  0  0
   18.0511  -11.6075   14.8506 C   0  0  0  0  0  0  0  0  0  0  0  0
   18.5564  -12.6359   13.8980 C   0  0  0  0  0  0  0  0  0  0  0  0
   17.4413  -10.3920   14.4405 C   0  0  0  0  0  0  0  0  0  0  0  0
   16.9995   -9.4966   15.4215 C   0  0  0  0  0  0  0  0  0  0  0  0
   15.1578   -7.3546   18.9870 N   0  0  0  0  0  0  0  0  0  0  0  0
   15.4076   -8.2617   17.9060 C   0  0  0  0  0  0  0  0  0  0  0  0
   14.5080   -8.5174   17.0606 O   0  0  0  0  0  0  0  0  0  0  0  0
   16.7026   -8.8671   17.8019 N   0  0  0  0  0  0  0  0  0  0  0  0
   15.9135   -7.1699   19.5904 H   0  0  0  0  0  0  0  0  0  0  0  0
   17.3549   -8.6342   18.5015 H   0  0  0  0  0  0  0  0  0  0  0  0
   11.5334   -5.3494   19.9262 C   0  0  0  0  0  0  0  0  0  0  0  0
   12.7194   -5.0579   20.6185 C   0  0  0  0  0  0  0  0  0  0  0  0
   13.9049   -5.7248   20.2970 C   0  0  0  0  0  0  0  0  0  0  0  0
   13.9230   -6.6876   19.2828 C   0  0  0  0  0  0  0  0  0  0  0  0
   12.7367   -6.9797   18.5939 C   0  0  0  0  0  0  0  0  0  0  0  0
   11.5502   -6.3135   18.9137 C   0  0  0  0  0  0  0  0  0  0  0  0
   10.2274   -3.7012   21.2283 C   0  0  0  0  0  0  0  0  0  0  0  0
   10.3318   -4.7004   20.2234 O   0  0  0  0  0  0  0  0  0  0  0  0
   17.2430  -10.0084   13.1043 O   0  0  0  0  0  0  0  0  0  0  0  0
   17.4366  -10.8405   11.9697 C   0  0  0  0  0  0  0  0  0  0  0  0
   17.5163  -10.0032   10.7441 C   0  0  0  0  0  0  0  0  0  0  0  0
   16.3921   -9.8348    9.9416 C   0  0  0  0  0  0  0  0  0  0  0  0
   16.4886   -9.0245    8.8114 C   0  0  0  0  0  0  0  0  0  0  0  0
   15.4714   -8.8730    8.0805 O   0  0  0  0  0  0  0  0  0  0  0  0
   17.6719   -8.4060    8.5081 N   0  0  0  0  0  0  0  0  0  0  0  0
   17.7655   -7.6126    7.3994 C   0  0  0  0  0  0  0  0  0  0  0  0
   18.9629   -6.9704    7.0786 C   0  0  0  0  0  0  0  0  0  0  0  0
   20.0727   -7.1432    7.9033 C   0  0  0  0  0  0  0  0  0  0  0  0
   19.9772   -7.9529    9.0335 C   0  0  0  0  0  0  0  0  0  0  0  0
   18.7657   -8.5836    9.3266 C   0  0  0  0  0  0  0  0  0  0  0  0
   18.6750   -9.3722   10.4286 N   0  0  0  0  0  0  0  0  0  0  0  0
 20 21  1  0  0  0
 21 14  1  0  0  0
 14 15  2  0  0  0
 15 16  1  0  0  0
 16 17  2  0  0  0
 17  8  1  0  0  0
 17 18  1  0  0  0
  8  9  1  0  0  0
  9 10  2  0  0  0
  9 11  1  0  0  0
 11  1  1  0  0  0
  1  2  2  0  0  0
  2  3  1  0  0  0
  3  4  2  0  0  0
  4  5  1  0  0  0
  4  6  1  0  0  0
  6 22  1  0  0  0
  6  7  2  0  0  0
 22 23  1  0  0  0
 23 24  1  0  0  0
 24 25  2  0  0  0
 25 26  1  0  0  0
 26 27  2  0  0  0
 26 28  1  0  0  0
 28 29  1  0  0  0
 29 30  2  0  0  0
 30 31  1  0  0  0
 31 32  2  0  0  0
 32 33  1  0  0  0
 33 34  2  0  0  0
 33 28  1  0  0  0
 34 24  1  0  0  0
  7  1  1  0  0  0
 18 19  2  0  0  0
 19 14  1  0  0  0
  8 12  1  0  0  0
 11 13  1  0  0  0
M  END
>  <minimizedAffinity>
-5.50382

>  <minimizedRMSD>
1.82041

$$$$
ChemDiv-D549-1891 MCULE-3174580499 MolPort-010-800-777 PubChem-53046710 ZINC000064794099


 29 33  0  0  0  0  0  0  0  0999 V2000
   16.6018   -9.6794   12.1211 C   0  0  0  0  0  0  0  0  0  0  0  0
   15.3144   -9.5301   12.4841 N   0  0  0  0  0  0  0  0  0  0  0  0
   15.2375   -9.8197   13.7721 N   0  0  0  0  0  0  0  0  0  0  0  0
   16.4763  -10.1528   14.1775 C   0  0  0  0  0  0  0  0  0  0  0  0
   17.3720  -10.0843   13.1566 N   0  0  0  0  0  0  0  0  0  0  0  0
   17.0621   -9.4711   10.7366 C   0  0  0  0  0  0  0  0  0  0  0  0
   18.1507   -8.6957   10.3137 C   0  0  0  0  0  0  0  0  0  0  0  0
   18.9704   -7.9284   11.1916 N   0  0  0  0  0  0  0  0  0  0  0  0
   18.2815   -8.6560    8.9227 C   0  0  0  0  0  0  0  0  0  0  0  0
   17.3048   -9.3820    8.2675 C   0  0  0  0  0  0  0  0  0  0  0  0
   17.2410   -9.4597    6.9152 N   0  0  0  0  0  0  0  0  0  0  0  0
   18.1724   -8.8038    6.1638 C   0  0  0  0  0  0  0  0  0  0  0  0
   19.1870   -8.0477    6.7827 C   0  0  0  0  0  0  0  0  0  0  0  0
   19.2432   -7.9682    8.1831 C   0  0  0  0  0  0  0  0  0  0  0  0
   16.2534  -10.0773    9.3741 S   0  0  0  0  0  0  0  0  0  0  0  0
   18.8406   -7.9897   12.1656 H   0  0  0  0  0  0  0  0  0  0  0  0
   19.6665   -7.3371   10.8241 H   0  0  0  0  0  0  0  0  0  0  0  0
   18.7858  -10.4846   13.0481 C   0  0  0  0  0  0  0  0  0  0  0  0
   19.3708  -10.8920   14.3849 C   0  0  0  0  0  0  0  0  0  0  0  0
   18.9963  -11.9519   13.3635 C   0  0  0  0  0  0  0  0  0  0  0  0
   16.8171  -10.6330   15.8764 S   0  0  0  0  0  0  0  0  0  0  0  0
   17.2459   -8.9375   16.3833 C   0  0  0  0  0  0  0  0  0  0  0  0
   16.0704   -8.2578   16.9961 C   0  0  0  0  0  0  0  0  0  0  0  0
   15.2081   -7.7187   16.2524 O   0  0  0  0  0  0  0  0  0  0  0  0
   15.9319   -8.2169   18.4172 N   0  0  0  0  0  0  0  0  0  0  0  0
   16.6314   -8.6256   18.9765 H   0  0  0  0  0  0  0  0  0  0  0  0
   14.7905   -7.5907   19.0629 C   0  0  0  0  0  0  0  0  0  0  0  0
   14.6630   -8.1206   20.4763 C   0  0  0  0  0  0  0  0  0  0  0  0
   15.2753   -6.7581   20.2308 C   0  0  0  0  0  0  0  0  0  0  0  0
  1  2  2  0  0  0
  2  3  1  0  0  0
  3  4  2  0  0  0
  4 21  1  0  0  0
 21 22  1  0  0  0
 22 23  1  0  0  0
 23 24  2  0  0  0
 23 25  1  0  0  0
 25 27  1  0  0  0
 27 28  1  0  0  0
 28 29  1  0  0  0
  4  5  1  0  0  0
  5 18  1  0  0  0
 18 19  1  0  0  0
 19 20  1  0  0  0
  1  6  1  0  0  0
  6  7  2  0  0  0
  7  8  1  0  0  0
  7  9  1  0  0  0
  9 10  2  0  0  0
 10 11  1  0  0  0
 11 12  2  0  0  0
 12 13  1  0  0  0
 13 14  2  0  0  0
 10 15  1  0  0  0
  5  1  1  0  0  0
 20 18  1  0  0  0
 15  6  1  0  0  0
 29 27  1  0  0  0
 14  9  1  0  0  0
 25 26  1  0  0  0
  8 16  1  0  0  0
  8 17  1  0  0  0
M  END
>  <minimizedAffinity>
-5.50251

>  <minimizedRMSD>
1.07006

$$$$
ChemDiv-G357-4008 MCULE-4354102156 MolPort-007-848-113 PubChem-20953267 ZINC000021017038


 34 36  0  0  0  0  0  0  0  0999 V2000
   17.2876   -9.6420   13.5133 O   0  0  0  0  0  0  0  0  0  0  0  0
   17.6566   -9.8020   14.8510 C   0  0  0  0  0  0  0  0  0  0  0  0
   18.6698  -10.4915   15.1538 O   0  0  0  0  0  0  0  0  0  0  0  0
   16.8608   -9.1568   15.9074 C   0  0  0  0  0  0  0  0  0  0  0  0
   17.0193   -9.5297   17.2493 C   0  0  0  0  0  0  0  0  0  0  0  0
   16.2613   -8.9110   18.2478 C   0  0  0  0  0  0  0  0  0  0  0  0
   15.3368   -7.9140   17.9202 C   0  0  0  0  0  0  0  0  0  0  0  0
   15.1775   -7.5416   16.5774 C   0  0  0  0  0  0  0  0  0  0  0  0
   15.9347   -8.1587   15.5782 C   0  0  0  0  0  0  0  0  0  0  0  0
   14.5793   -7.3026   18.9729 N   0  0  0  0  0  0  0  0  0  0  0  0
   13.2625   -6.7387   18.8692 C   0  0  0  0  0  0  0  0  0  0  0  0
   12.6430   -6.7327   17.7728 O   0  0  0  0  0  0  0  0  0  0  0  0
   15.0063   -7.2655   19.8592 H   0  0  0  0  0  0  0  0  0  0  0  0
   12.6106   -6.1393   20.0711 C   0  0  0  0  0  0  0  0  0  0  0  0
   11.1169   -5.9729   19.8180 C   0  0  0  0  0  0  0  0  0  0  0  0
   10.7730   -4.5164   19.5736 C   0  0  0  0  0  0  0  0  0  0  0  0
   12.8716   -7.0193   21.2876 C   0  0  0  0  0  0  0  0  0  0  0  0
   12.7648   -6.2116   22.5681 C   0  0  0  0  0  0  0  0  0  0  0  0
   17.4642  -10.6750   12.5556 C   0  0  0  0  0  0  0  0  0  0  0  0
   17.5079   -8.9335    8.7157 N   0  0  0  0  0  0  0  0  0  0  0  0
   17.6570   -8.3069    7.5509 N   0  0  0  0  0  0  0  0  0  0  0  0
   18.8053   -7.5881    7.5042 C   0  0  0  0  0  0  0  0  0  0  0  0
   19.7028   -7.7230    8.9384 S   0  0  0  0  0  0  0  0  0  0  0  0
   18.5206   -8.7266    9.5838 C   0  0  0  0  0  0  0  0  0  0  0  0
   18.5272   -9.2860   10.8183 N   0  0  0  0  0  0  0  0  0  0  0  0
   17.4887  -10.0866   11.1905 C   0  0  0  0  0  0  0  0  0  0  0  0
   16.4189  -10.3169   10.3097 C   0  0  0  0  0  0  0  0  0  0  0  0
   16.4495   -9.7205    9.0440 C   0  0  0  0  0  0  0  0  0  0  0  0
   15.5084   -9.9113    8.2292 O   0  0  0  0  0  0  0  0  0  0  0  0
   19.2399   -6.8144    6.3107 C   0  0  0  0  0  0  0  0  0  0  0  0
   20.4516   -7.4739    5.6820 C   0  0  0  0  0  0  0  0  0  0  0  0
   20.9186   -6.6840    4.6322 O   0  0  0  0  0  0  0  0  0  0  0  0
   21.2690   -7.5943    3.6356 C   0  0  0  0  0  0  0  0  0  0  0  0
   21.9871   -6.8664    2.5182 C   0  0  0  0  0  0  0  0  0  0  0  0
 20 21  1  0  0  0
 21 22  2  0  0  0
 22 23  1  0  0  0
 23 24  1  0  0  0
 24 25  2  0  0  0
 25 26  1  0  0  0
 26 19  1  0  0  0
 19  1  1  0  0  0
  1  2  1  0  0  0
  2  3  2  0  0  0
  2  4  1  0  0  0
  4  5  2  0  0  0
  5  6  1  0  0  0
  6  7  2  0  0  0
  7  8  1  0  0  0
  8  9  2  0  0  0
  7 10  1  0  0  0
 10 11  1  0  0  0
 11 14  1  0  0  0
 14 15  1  0  0  0
 15 16  1  0  0  0
 14 17  1  0  0  0
 17 18  1  0  0  0
 11 12  2  0  0  0
 26 27  2  0  0  0
 27 28  1  0  0  0
 28 29  2  0  0  0
 22 30  1  0  0  0
 30 31  1  0  0  0
 31 32  1  0  0  0
 32 33  1  0  0  0
 33 34  1  0  0  0
 24 20  1  0  0  0
  9  4  1  0  0  0
 28 20  1  0  0  0
 10 13  1  0  0  0
M  END
>  <minimizedAffinity>
-5.49835

>  <minimizedRMSD>
2.15183

$$$$
ChemDiv-G357-0573 CHEMBL1524058 MCULE-4339552329 MolPort-007-847-243 PubChem-16027586 ZINC000008607459


 34 37  0  0  0  0  0  0  0  0999 V2000
   17.1734   -9.8474   13.9324 C   0  0  0  0  0  0  0  0  0  0  0  0
   16.4739   -8.6459   14.1027 C   0  0  0  0  0  0  0  0  0  0  0  0
   16.1513   -8.1932   15.3848 C   0  0  0  0  0  0  0  0  0  0  0  0
   16.5247   -8.9363   16.5144 C   0  0  0  0  0  0  0  0  0  0  0  0
   17.2216  -10.1366   16.3433 C   0  0  0  0  0  0  0  0  0  0  0  0
   17.5452  -10.5906   15.0615 C   0  0  0  0  0  0  0  0  0  0  0  0
   16.2079   -8.5060   17.8450 N   0  0  0  0  0  0  0  0  0  0  0  0
   15.0367   -7.7891   18.2580 C   0  0  0  0  0  0  0  0  0  0  0  0
   14.1602   -7.4345   17.4260 O   0  0  0  0  0  0  0  0  0  0  0  0
   16.8619   -8.7254   18.5475 H   0  0  0  0  0  0  0  0  0  0  0  0
   14.8486   -7.4594   19.6997 C   0  0  0  0  0  0  0  0  0  0  0  0
   13.4375   -7.7994   20.1655 C   0  0  0  0  0  0  0  0  0  0  0  0
   12.6589   -6.5744   20.5196 C   0  0  0  0  0  0  0  0  0  0  0  0
   12.8852   -5.9461   21.7490 C   0  0  0  0  0  0  0  0  0  0  0  0
   12.1475   -4.8125   22.1042 C   0  0  0  0  0  0  0  0  0  0  0  0
   11.1768   -4.3085   21.2332 C   0  0  0  0  0  0  0  0  0  0  0  0
   10.9409   -4.9399   20.0084 C   0  0  0  0  0  0  0  0  0  0  0  0
   11.6780   -6.0736   19.6534 C   0  0  0  0  0  0  0  0  0  0  0  0
   17.5111  -10.3199   12.5801 C   0  0  0  0  0  0  0  0  0  0  0  0
   18.1287  -11.4101   12.4270 O   0  0  0  0  0  0  0  0  0  0  0  0
   17.1451   -9.5562   11.4695 O   0  0  0  0  0  0  0  0  0  0  0  0
   16.5203  -10.1345   10.3330 C   0  0  0  0  0  0  0  0  0  0  0  0
   17.6733   -7.9638    6.9070 N   0  0  0  0  0  0  0  0  0  0  0  0
   18.1844   -7.3405    5.8479 N   0  0  0  0  0  0  0  0  0  0  0  0
   19.4657   -7.7112    5.6095 C   0  0  0  0  0  0  0  0  0  0  0  0
   20.0265   -8.8400    6.7467 S   0  0  0  0  0  0  0  0  0  0  0  0
   18.5315   -8.8116    7.5122 C   0  0  0  0  0  0  0  0  0  0  0  0
   18.1764   -9.5223    8.6102 N   0  0  0  0  0  0  0  0  0  0  0  0
   16.9165   -9.3843    9.1121 C   0  0  0  0  0  0  0  0  0  0  0  0
   16.0045   -8.5027    8.5083 C   0  0  0  0  0  0  0  0  0  0  0  0
   16.4106   -7.7859    7.3774 C   0  0  0  0  0  0  0  0  0  0  0  0
   15.6155   -6.9896    6.8110 O   0  0  0  0  0  0  0  0  0  0  0  0
   20.2919   -7.1382    4.5130 C   0  0  0  0  0  0  0  0  0  0  0  0
   21.7127   -6.9261    4.9958 C   0  0  0  0  0  0  0  0  0  0  0  0
 23 24  1  0  0  0
 24 25  2  0  0  0
 25 26  1  0  0  0
 26 27  1  0  0  0
 27 28  2  0  0  0
 28 29  1  0  0  0
 29 22  1  0  0  0
 22 21  1  0  0  0
 21 19  1  0  0  0
 19 20  2  0  0  0
 19  1  1  0  0  0
  1  2  2  0  0  0
  2  3  1  0  0  0
  3  4  2  0  0  0
  4  5  1  0  0  0
  5  6  2  0  0  0
  4  7  1  0  0  0
  7  8  1  0  0  0
  8 11  1  0  0  0
 11 12  1  0  0  0
 12 13  1  0  0  0
 13 14  2  0  0  0
 14 15  1  0  0  0
 15 16  2  0  0  0
 16 17  1  0  0  0
 17 18  2  0  0  0
  8  9  2  0  0  0
 29 30  2  0  0  0
 30 31  1  0  0  0
 31 32  2  0  0  0
 25 33  1  0  0  0
 33 34  1  0  0  0
 27 23  1  0  0  0
  6  1  1  0  0  0
 18 13  1  0  0  0
 31 23  1  0  0  0
  7 10  1  0  0  0
M  END
>  <minimizedAffinity>
-5.49796

>  <minimizedRMSD>
2.04334

$$$$
ChemDiv-G357-3561 CHEMBL1594099 MCULE-6566606979 MolPort-007-848-037 PubChem-16027699 ZINC000008607922


 35 38  0  0  0  0  0  0  0  0999 V2000
   17.1645   -9.7767   15.3445 C   0  0  0  0  0  0  0  0  0  0  0  0
   16.4190   -8.6115   15.1240 C   0  0  0  0  0  0  0  0  0  0  0  0
   15.8919   -7.8967   16.2029 C   0  0  0  0  0  0  0  0  0  0  0  0
   16.1035   -8.3380   17.5176 C   0  0  0  0  0  0  0  0  0  0  0  0
   16.8481   -9.5013   17.7365 C   0  0  0  0  0  0  0  0  0  0  0  0
   17.3758  -10.2174   16.6583 C   0  0  0  0  0  0  0  0  0  0  0  0
   15.5792   -7.6310   18.6497 N   0  0  0  0  0  0  0  0  0  0  0  0
   14.2270   -7.1925   18.8358 C   0  0  0  0  0  0  0  0  0  0  0  0
   13.3390   -7.4252   17.9733 O   0  0  0  0  0  0  0  0  0  0  0  0
   16.2134   -7.4254   19.3740 H   0  0  0  0  0  0  0  0  0  0  0  0
   13.8590   -6.4779   20.0869 C   0  0  0  0  0  0  0  0  0  0  0  0
   12.3924   -6.7157   20.4034 C   0  0  0  0  0  0  0  0  0  0  0  0
   11.8805   -5.6699   21.3338 C   0  0  0  0  0  0  0  0  0  0  0  0
   11.9026   -5.8766   22.7195 C   0  0  0  0  0  0  0  0  0  0  0  0
   11.4046   -4.8954   23.5822 C   0  0  0  0  0  0  0  0  0  0  0  0
   10.8791   -3.7087   23.0620 C   0  0  0  0  0  0  0  0  0  0  0  0
   10.8497   -3.5037   21.6793 C   0  0  0  0  0  0  0  0  0  0  0  0
   11.3478   -4.4845   20.8159 C   0  0  0  0  0  0  0  0  0  0  0  0
   17.7175  -10.5260   14.2048 C   0  0  0  0  0  0  0  0  0  0  0  0
   18.3623  -11.5930   14.4025 O   0  0  0  0  0  0  0  0  0  0  0  0
   17.5250  -10.0505   12.9058 O   0  0  0  0  0  0  0  0  0  0  0  0
   17.5646  -10.9110   11.7770 C   0  0  0  0  0  0  0  0  0  0  0  0
   17.6241   -8.5524    8.2823 N   0  0  0  0  0  0  0  0  0  0  0  0
   17.7983   -7.7816    7.2116 N   0  0  0  0  0  0  0  0  0  0  0  0
   19.0824   -7.3669    7.0873 C   0  0  0  0  0  0  0  0  0  0  0  0
   20.0711   -7.9687    8.3289 S   0  0  0  0  0  0  0  0  0  0  0  0
   18.7486   -8.7570    9.0003 C   0  0  0  0  0  0  0  0  0  0  0  0
   18.7498   -9.5183   10.1217 N   0  0  0  0  0  0  0  0  0  0  0  0
   17.5866  -10.0982   10.5324 C   0  0  0  0  0  0  0  0  0  0  0  0
   16.3991   -9.8962    9.8098 C   0  0  0  0  0  0  0  0  0  0  0  0
   16.4398   -9.1037    8.6572 C   0  0  0  0  0  0  0  0  0  0  0  0
   15.3931   -8.9071    7.9846 O   0  0  0  0  0  0  0  0  0  0  0  0
   19.5645   -6.5172    5.9610 C   0  0  0  0  0  0  0  0  0  0  0  0
   20.2688   -7.3594    4.9096 C   0  0  0  0  0  0  0  0  0  0  0  0
   21.6877   -6.8671    4.6946 C   0  0  0  0  0  0  0  0  0  0  0  0
 23 24  1  0  0  0
 24 25  2  0  0  0
 25 26  1  0  0  0
 26 27  1  0  0  0
 27 28  2  0  0  0
 28 29  1  0  0  0
 29 22  1  0  0  0
 22 21  1  0  0  0
 21 19  1  0  0  0
 19 20  2  0  0  0
 19  1  1  0  0  0
  1  2  2  0  0  0
  2  3  1  0  0  0
  3  4  2  0  0  0
  4  5  1  0  0  0
  5  6  2  0  0  0
  4  7  1  0  0  0
  7  8  1  0  0  0
  8 11  1  0  0  0
 11 12  1  0  0  0
 12 13  1  0  0  0
 13 14  2  0  0  0
 14 15  1  0  0  0
 15 16  2  0  0  0
 16 17  1  0  0  0
 17 18  2  0  0  0
  8  9  2  0  0  0
 29 30  2  0  0  0
 30 31  1  0  0  0
 31 32  2  0  0  0
 25 33  1  0  0  0
 33 34  1  0  0  0
 34 35  1  0  0  0
 27 23  1  0  0  0
  6  1  1  0  0  0
 18 13  1  0  0  0
 31 23  1  0  0  0
  7 10  1  0  0  0
M  END
>  <minimizedAffinity>
-5.49599

>  <minimizedRMSD>
1.40962

$$$$
ChemDiv-G756-0838 MCULE-6789759145 MolPort-007-879-430 PubChem-46356242 ZINC000033067936 ZINC33067936


 37 40  0  0  0  0  0  0  0  0999 V2000
   17.4535   -9.9015   16.5655 C   0  0  0  0  0  0  0  0  0  0  0  0
   17.9174  -11.1364   17.0270 C   0  0  0  0  0  0  0  0  0  0  0  0
   18.1980  -12.1674   16.1271 C   0  0  0  0  0  0  0  0  0  0  0  0
   18.0161  -11.9737   14.7549 C   0  0  0  0  0  0  0  0  0  0  0  0
   18.3262  -13.0899   13.8185 C   0  0  0  0  0  0  0  0  0  0  0  0
   17.5494  -10.7392   14.2750 C   0  0  0  0  0  0  0  0  0  0  0  0
   17.2715   -9.7097   15.1886 C   0  0  0  0  0  0  0  0  0  0  0  0
   15.8205   -7.4567   19.0206 N   0  0  0  0  0  0  0  0  0  0  0  0
   15.8964   -8.5208   18.0633 C   0  0  0  0  0  0  0  0  0  0  0  0
   14.8577   -9.1395   17.7062 O   0  0  0  0  0  0  0  0  0  0  0  0
   17.1766   -8.8668   17.5194 N   0  0  0  0  0  0  0  0  0  0  0  0
   16.6690   -7.0197   19.2620 H   0  0  0  0  0  0  0  0  0  0  0  0
   17.9462   -8.3392   17.8334 H   0  0  0  0  0  0  0  0  0  0  0  0
   12.3560   -5.9726   20.9947 C   0  0  0  0  0  0  0  0  0  0  0  0
   12.2749   -6.3388   19.6279 C   0  0  0  0  0  0  0  0  0  0  0  0
   13.4221   -6.8300   18.9819 C   0  0  0  0  0  0  0  0  0  0  0  0
   14.6379   -6.9619   19.6636 C   0  0  0  0  0  0  0  0  0  0  0  0
   14.7062   -6.5976   21.0082 C   0  0  0  0  0  0  0  0  0  0  0  0
   13.5763   -6.1090   21.6653 C   0  0  0  0  0  0  0  0  0  0  0  0
   10.3297   -4.5266   21.2546 C   0  0  0  0  0  0  0  0  0  0  0  0
   11.2736   -5.4733   21.7346 O   0  0  0  0  0  0  0  0  0  0  0  0
   11.0710   -6.2146   18.9245 O   0  0  0  0  0  0  0  0  0  0  0  0
   10.6777   -7.1157   17.8976 C   0  0  0  0  0  0  0  0  0  0  0  0
   17.3693  -10.5529   12.8996 O   0  0  0  0  0  0  0  0  0  0  0  0
   16.8282   -9.3586   12.3503 C   0  0  0  0  0  0  0  0  0  0  0  0
   17.0391   -9.3467   10.8790 C   0  0  0  0  0  0  0  0  0  0  0  0
   16.3766  -10.2666   10.0740 C   0  0  0  0  0  0  0  0  0  0  0  0
   16.6141  -10.2514    8.7010 C   0  0  0  0  0  0  0  0  0  0  0  0
   16.0103  -11.0831    7.9690 O   0  0  0  0  0  0  0  0  0  0  0  0
   17.4909   -9.3467    8.1637 N   0  0  0  0  0  0  0  0  0  0  0  0
   17.7182   -9.3380    6.8165 C   0  0  0  0  0  0  0  0  0  0  0  0
   18.6087   -8.4290    6.2459 C   0  0  0  0  0  0  0  0  0  0  0  0
   19.2734   -7.5199    7.0643 C   0  0  0  0  0  0  0  0  0  0  0  0
   19.0459   -7.5233    8.4391 C   0  0  0  0  0  0  0  0  0  0  0  0
   19.7698   -6.5408    9.2959 C   0  0  0  0  0  0  0  0  0  0  0  0
   18.1423   -8.4509    8.9849 C   0  0  0  0  0  0  0  0  0  0  0  0
   17.9100   -8.4667   10.3257 N   0  0  0  0  0  0  0  0  0  0  0  0
 20 21  1  0  0  0
 21 14  1  0  0  0
 14 15  2  0  0  0
 15 22  1  0  0  0
 15 16  1  0  0  0
 22 23  1  0  0  0
 16 17  2  0  0  0
 17  8  1  0  0  0
 17 18  1  0  0  0
  8  9  1  0  0  0
  9 10  2  0  0  0
  9 11  1  0  0  0
 11  1  1  0  0  0
  1  2  2  0  0  0
  2  3  1  0  0  0
  3  4  2  0  0  0
  4  5  1  0  0  0
  4  6  1  0  0  0
  6 24  1  0  0  0
  6  7  2  0  0  0
 24 25  1  0  0  0
 25 26  1  0  0  0
 26 27  2  0  0  0
 27 28  1  0  0  0
 28 29  2  0  0  0
 28 30  1  0  0  0
 30 31  1  0  0  0
 31 32  2  0  0  0
 32 33  1  0  0  0
 33 34  2  0  0  0
 34 35  1  0  0  0
 34 36  1  0  0  0
 36 37  2  0  0  0
 36 30  1  0  0  0
 37 26  1  0  0  0
  7  1  1  0  0  0
 18 19  2  0  0  0
 19 14  1  0  0  0
  8 12  1  0  0  0
 11 13  1  0  0  0
M  END
>  <minimizedAffinity>
-5.48346

>  <minimizedRMSD>
1.93716

$$$$
ChemDiv-G357-2019 MCULE-1428872273 MolPort-007-847-742 PubChem-46343526 ZINC000021633286


 32 35  0  0  0  0  0  0  0  0999 V2000
   17.3344   -9.2553   15.3954 C   0  0  0  0  0  0  0  0  0  0  0  0
   17.2915   -9.8419   16.6683 C   0  0  0  0  0  0  0  0  0  0  0  0
   16.5337   -9.2598   17.6891 C   0  0  0  0  0  0  0  0  0  0  0  0
   15.8101   -8.0862   17.4529 C   0  0  0  0  0  0  0  0  0  0  0  0
   15.8525   -7.4993   16.1792 C   0  0  0  0  0  0  0  0  0  0  0  0
   16.6099   -8.0801   15.1577 C   0  0  0  0  0  0  0  0  0  0  0  0
   15.0418   -7.5223   18.5250 N   0  0  0  0  0  0  0  0  0  0  0  0
   13.6930   -7.0340   18.4565 C   0  0  0  0  0  0  0  0  0  0  0  0
   13.0680   -7.0439   17.3611 O   0  0  0  0  0  0  0  0  0  0  0  0
   15.4866   -7.4637   19.4013 H   0  0  0  0  0  0  0  0  0  0  0  0
   13.0436   -6.5127   19.6811 C   0  0  0  0  0  0  0  0  0  0  0  0
   13.4219   -7.0347   20.9281 C   0  0  0  0  0  0  0  0  0  0  0  0
   12.8310   -6.5710   22.1064 C   0  0  0  0  0  0  0  0  0  0  0  0
   11.8523   -5.5773   22.0521 C   0  0  0  0  0  0  0  0  0  0  0  0
   11.4649   -5.0477   20.8197 C   0  0  0  0  0  0  0  0  0  0  0  0
   12.0522   -5.5079   19.6362 C   0  0  0  0  0  0  0  0  0  0  0  0
   11.6469   -4.9684   18.4596 F   0  0  0  0  0  0  0  0  0  0  0  0
   18.1266   -9.8653   14.3150 C   0  0  0  0  0  0  0  0  0  0  0  0
   19.1157  -10.5991   14.5926 O   0  0  0  0  0  0  0  0  0  0  0  0
   17.7791   -9.6262   12.9833 O   0  0  0  0  0  0  0  0  0  0  0  0
   18.0194  -10.5812   11.9596 C   0  0  0  0  0  0  0  0  0  0  0  0
   17.7557   -8.6406    8.2215 N   0  0  0  0  0  0  0  0  0  0  0  0
   17.8529   -7.9544    7.0513 C   0  0  0  0  0  0  0  0  0  0  0  0
   19.1136   -7.3939    6.8578 C   0  0  0  0  0  0  0  0  0  0  0  0
   20.1202   -7.7599    8.1682 S   0  0  0  0  0  0  0  0  0  0  0  0
   18.9038   -8.6245    8.9354 C   0  0  0  0  0  0  0  0  0  0  0  0
   19.0068   -9.2502   10.1335 N   0  0  0  0  0  0  0  0  0  0  0  0
   17.9293   -9.9197   10.6310 C   0  0  0  0  0  0  0  0  0  0  0  0
   16.7208   -9.9480    9.9167 C   0  0  0  0  0  0  0  0  0  0  0  0
   16.6526   -9.2909    8.6832 C   0  0  0  0  0  0  0  0  0  0  0  0
   15.5814   -9.3042    8.0190 O   0  0  0  0  0  0  0  0  0  0  0  0
   19.5171   -6.5907    5.6744 C   0  0  0  0  0  0  0  0  0  0  0  0
 22 23  1  0  0  0
 23 24  2  0  0  0
 24 25  1  0  0  0
 25 26  1  0  0  0
 26 27  2  0  0  0
 27 28  1  0  0  0
 28 21  1  0  0  0
 21 20  1  0  0  0
 20 18  1  0  0  0
 18 19  2  0  0  0
 18  1  1  0  0  0
  1  2  2  0  0  0
  2  3  1  0  0  0
  3  4  2  0  0  0
  4  5  1  0  0  0
  5  6  2  0  0  0
  4  7  1  0  0  0
  7  8  1  0  0  0
  8  9  2  0  0  0
  8 11  1  0  0  0
 11 12  2  0  0  0
 12 13  1  0  0  0
 13 14  2  0  0  0
 14 15  1  0  0  0
 15 16  2  0  0  0
 16 17  1  0  0  0
 28 29  2  0  0  0
 29 30  1  0  0  0
 30 31  2  0  0  0
 24 32  1  0  0  0
 26 22  1  0  0  0
  6  1  1  0  0  0
 16 11  1  0  0  0
 30 22  1  0  0  0
  7 10  1  0  0  0
M  END
>  <minimizedAffinity>
-5.47680

>  <minimizedRMSD>
1.50771

$$$$
ChemDiv-G357-1270 CHEMBL1329024 MCULE-2722787636 MolPort-007-847-470 PubChem-16027442 ZINC000008607039 ZINC08607039


 34 38  0  0  0  0  0  0  0  0999 V2000
   16.3786   -8.7274   16.5977 C   0  0  0  0  0  0  0  0  0  0  0  0
   17.2924   -9.7759   16.4520 C   0  0  0  0  0  0  0  0  0  0  0  0
   17.6904  -10.1963   15.1797 C   0  0  0  0  0  0  0  0  0  0  0  0
   17.1773   -9.5705   14.0348 C   0  0  0  0  0  0  0  0  0  0  0  0
   16.2600   -8.5221   14.1797 C   0  0  0  0  0  0  0  0  0  0  0  0
   15.8630   -8.1031   15.4523 C   0  0  0  0  0  0  0  0  0  0  0  0
   14.7999   -7.6259   18.3014 C   0  0  0  0  0  0  0  0  0  0  0  0
   13.9553   -7.2950   17.4258 O   0  0  0  0  0  0  0  0  0  0  0  0
   15.9960   -8.3259   17.9203 N   0  0  0  0  0  0  0  0  0  0  0  0
   16.6206   -8.5546   18.6462 H   0  0  0  0  0  0  0  0  0  0  0  0
   12.0250   -7.2217   19.5101 C   0  0  0  0  0  0  0  0  0  0  0  0
   13.2851   -7.1148   20.3020 C   0  0  0  0  0  0  0  0  0  0  0  0
   14.5730   -7.3021   19.7335 C   0  0  0  0  0  0  0  0  0  0  0  0
   15.6984   -7.1753   20.5654 C   0  0  0  0  0  0  0  0  0  0  0  0
   15.5624   -6.8739   21.9214 C   0  0  0  0  0  0  0  0  0  0  0  0
   14.2935   -6.6925   22.4702 C   0  0  0  0  0  0  0  0  0  0  0  0
   13.1617   -6.8132   21.6625 C   0  0  0  0  0  0  0  0  0  0  0  0
   17.5928  -10.0081   12.6923 C   0  0  0  0  0  0  0  0  0  0  0  0
   18.4293  -10.9450   12.5630 O   0  0  0  0  0  0  0  0  0  0  0  0
   17.0571   -9.3823   11.5643 O   0  0  0  0  0  0  0  0  0  0  0  0
   16.5953  -10.1219   10.4436 C   0  0  0  0  0  0  0  0  0  0  0  0
   16.9848   -9.4208    9.1914 C   0  0  0  0  0  0  0  0  0  0  0  0
   16.0882   -8.5246    8.5863 C   0  0  0  0  0  0  0  0  0  0  0  0
   16.4878   -7.8553    7.4244 C   0  0  0  0  0  0  0  0  0  0  0  0
   15.7056   -7.0482    6.8554 O   0  0  0  0  0  0  0  0  0  0  0  0
   17.7316   -8.0892    6.9282 N   0  0  0  0  0  0  0  0  0  0  0  0
   18.2320   -7.5213    5.8337 N   0  0  0  0  0  0  0  0  0  0  0  0
   19.4989   -7.9322    5.5766 C   0  0  0  0  0  0  0  0  0  0  0  0
   20.0408   -9.0645    6.7220 S   0  0  0  0  0  0  0  0  0  0  0  0
   18.5757   -8.9498    7.5349 C   0  0  0  0  0  0  0  0  0  0  0  0
   18.2244   -9.6193    8.6598 N   0  0  0  0  0  0  0  0  0  0  0  0
   20.2814   -7.4931    4.3829 C   0  0  0  0  0  0  0  0  0  0  0  0
   21.6555   -7.0143    4.8161 C   0  0  0  0  0  0  0  0  0  0  0  0
   20.5799   -6.0078    4.4778 C   0  0  0  0  0  0  0  0  0  0  0  0
 11 12  1  0  0  0
 12 13  2  0  0  0
 13 14  1  0  0  0
 13  7  1  0  0  0
 14 15  2  0  0  0
 15 16  1  0  0  0
 16 17  2  0  0  0
 17 12  1  0  0  0
  7  8  2  0  0  0
  7  9  1  0  0  0
  9  1  1  0  0  0
  1  2  2  0  0  0
  2  3  1  0  0  0
  3  4  2  0  0  0
  4  5  1  0  0  0
  4 18  1  0  0  0
  5  6  2  0  0  0
  6  1  1  0  0  0
 18 19  2  0  0  0
 18 20  1  0  0  0
 20 21  1  0  0  0
 21 22  1  0  0  0
 22 23  2  0  0  0
 23 24  1  0  0  0
 24 25  2  0  0  0
 24 26  1  0  0  0
 26 27  1  0  0  0
 27 28  2  0  0  0
 28 29  1  0  0  0
 28 32  1  0  0  0
 29 30  1  0  0  0
 30 31  2  0  0  0
 30 26  1  0  0  0
 31 22  1  0  0  0
 32 33  1  0  0  0
 33 34  1  0  0  0
 34 32  1  0  0  0
  9 10  1  0  0  0
M  END
>  <minimizedAffinity>
-5.38254

>  <minimizedRMSD>
1.89333

$$$$
ChemDiv-D483-1709 MCULE-5593755574 MolPort-007-710-981 PubChem-20899107 ZINC000015859273 ZINC15859273


 31 34  0  0  0  0  0  0  0  0999 V2000
   15.7804   -8.2132   13.7833 C   0  0  0  0  0  0  0  0  0  0  0  0
   16.7591   -9.2540   13.5125 N   0  0  0  0  0  0  0  0  0  0  0  0
   16.8387  -10.0707   12.4475 C   0  0  0  0  0  0  0  0  0  0  0  0
   17.8995  -10.8966   12.5436 N   0  0  0  0  0  0  0  0  0  0  0  0
   18.5152  -10.6055   13.6820 N   0  0  0  0  0  0  0  0  0  0  0  0
   17.8178   -9.6083   14.2593 C   0  0  0  0  0  0  0  0  0  0  0  0
   15.8646  -10.0974   11.3120 C   0  0  0  0  0  0  0  0  0  0  0  0
   16.5381   -9.7373   10.0167 C   0  0  0  0  0  0  0  0  0  0  0  0
   16.1712  -10.3607    8.8142 C   0  0  0  0  0  0  0  0  0  0  0  0
   15.0801  -11.3758    8.7622 C   0  0  0  0  0  0  0  0  0  0  0  0
   16.8072  -10.0317    7.6628 N   0  0  0  0  0  0  0  0  0  0  0  0
   17.7989   -9.1066    7.6405 C   0  0  0  0  0  0  0  0  0  0  0  0
   18.4260   -8.8068    6.4284 C   0  0  0  0  0  0  0  0  0  0  0  0
   19.4432   -7.8547    6.3990 C   0  0  0  0  0  0  0  0  0  0  0  0
   19.8231   -7.2115    7.5749 C   0  0  0  0  0  0  0  0  0  0  0  0
   19.1767   -7.5335    8.7701 C   0  0  0  0  0  0  0  0  0  0  0  0
   18.1798   -8.4690    8.7992 N   0  0  0  0  0  0  0  0  0  0  0  0
   17.5604   -8.7724    9.9827 C   0  0  0  0  0  0  0  0  0  0  0  0
   17.9031   -8.1879   11.0506 O   0  0  0  0  0  0  0  0  0  0  0  0
   18.2488   -8.8733   15.8356 S   0  0  0  0  0  0  0  0  0  0  0  0
   16.8009   -9.5884   16.6726 C   0  0  0  0  0  0  0  0  0  0  0  0
   15.9483   -8.5125   17.2515 C   0  0  0  0  0  0  0  0  0  0  0  0
   15.4507   -7.6349   16.4965 O   0  0  0  0  0  0  0  0  0  0  0  0
   15.6997   -8.5060   18.6631 N   0  0  0  0  0  0  0  0  0  0  0  0
   16.1421   -9.2084   19.1925 H   0  0  0  0  0  0  0  0  0  0  0  0
   14.8734   -7.5820   19.3841 C   0  0  0  0  0  0  0  0  0  0  0  0
   15.2203   -7.2527   20.6994 C   0  0  0  0  0  0  0  0  0  0  0  0
   14.4372   -6.3582   21.4356 C   0  0  0  0  0  0  0  0  0  0  0  0
   13.2987   -5.7877   20.8592 C   0  0  0  0  0  0  0  0  0  0  0  0
   12.9438   -6.1119   19.5470 C   0  0  0  0  0  0  0  0  0  0  0  0
   13.7281   -7.0062   18.8122 C   0  0  0  0  0  0  0  0  0  0  0  0
  1  2  1  0  0  0
  2  3  1  0  0  0
  3  7  1  0  0  0
  3  4  2  0  0  0
  7  8  1  0  0  0
  8  9  2  0  0  0
  9 10  1  0  0  0
  9 11  1  0  0  0
 11 12  2  0  0  0
 12 13  1  0  0  0
 13 14  2  0  0  0
 14 15  1  0  0  0
 15 16  2  0  0  0
 16 17  1  0  0  0
 17 18  1  0  0  0
 17 12  1  0  0  0
 18 19  2  0  0  0
 18  8  1  0  0  0
  4  5  1  0  0  0
  5  6  2  0  0  0
  6 20  1  0  0  0
  6  2  1  0  0  0
 20 21  1  0  0  0
 21 22  1  0  0  0
 22 23  2  0  0  0
 22 24  1  0  0  0
 24 26  1  0  0  0
 26 27  2  0  0  0
 27 28  1  0  0  0
 28 29  2  0  0  0
 29 30  1  0  0  0
 30 31  2  0  0  0
 31 26  1  0  0  0
 24 25  1  0  0  0
M  END
>  <minimizedAffinity>
-5.35026

>  <minimizedRMSD>
1.80503

$$$$
ChemDiv-D549-1975 MCULE-6761318883 MolPort-010-800-804 PubChem-53046737 ZINC000064794194 ZINC64794194


 28 31  0  0  0  0  0  0  0  0999 V2000
   17.4641  -10.1213   13.1036 N   0  0  0  0  0  0  0  0  0  0  0  0
   16.5964  -10.2336   14.1266 C   0  0  0  0  0  0  0  0  0  0  0  0
   15.3425   -9.9255   13.7476 N   0  0  0  0  0  0  0  0  0  0  0  0
   15.3976   -9.6063   12.4623 N   0  0  0  0  0  0  0  0  0  0  0  0
   16.6861   -9.7122   12.0804 C   0  0  0  0  0  0  0  0  0  0  0  0
   17.1329   -9.4725   10.6969 C   0  0  0  0  0  0  0  0  0  0  0  0
   18.2206   -8.6936   10.2774 C   0  0  0  0  0  0  0  0  0  0  0  0
   19.0512   -7.9436   11.1596 N   0  0  0  0  0  0  0  0  0  0  0  0
   18.3385   -8.6296    8.8859 C   0  0  0  0  0  0  0  0  0  0  0  0
   19.2955   -7.9315    8.1498 C   0  0  0  0  0  0  0  0  0  0  0  0
   19.2263   -7.9861    6.7488 C   0  0  0  0  0  0  0  0  0  0  0  0
   18.2039   -8.7282    6.1260 C   0  0  0  0  0  0  0  0  0  0  0  0
   17.2776   -9.3947    6.8742 N   0  0  0  0  0  0  0  0  0  0  0  0
   17.3538   -9.3410    8.2269 C   0  0  0  0  0  0  0  0  0  0  0  0
   16.3112  -10.0530    9.3308 S   0  0  0  0  0  0  0  0  0  0  0  0
   18.9312   -8.0212   12.1337 H   0  0  0  0  0  0  0  0  0  0  0  0
   19.7450   -7.3478   10.7950 H   0  0  0  0  0  0  0  0  0  0  0  0
   19.0756  -11.9373   13.3771 C   0  0  0  0  0  0  0  0  0  0  0  0
   18.8825  -10.4591   13.0928 C   0  0  0  0  0  0  0  0  0  0  0  0
   17.0314  -10.7434   15.7901 S   0  0  0  0  0  0  0  0  0  0  0  0
   17.4948   -9.0567   16.2933 C   0  0  0  0  0  0  0  0  0  0  0  0
   16.3092   -8.3184   16.8119 C   0  0  0  0  0  0  0  0  0  0  0  0
   15.5650   -7.6966   16.0078 O   0  0  0  0  0  0  0  0  0  0  0  0
   16.0315   -8.3112   18.2130 N   0  0  0  0  0  0  0  0  0  0  0  0
   16.6348   -8.7960   18.8215 H   0  0  0  0  0  0  0  0  0  0  0  0
   14.8858   -7.6101   18.7677 C   0  0  0  0  0  0  0  0  0  0  0  0
   14.6177   -8.1251   20.1662 C   0  0  0  0  0  0  0  0  0  0  0  0
   15.3287   -6.8034   19.9709 C   0  0  0  0  0  0  0  0  0  0  0  0
 18 19  1  0  0  0
 19  1  1  0  0  0
  1  2  1  0  0  0
  2 20  1  0  0  0
  2  3  2  0  0  0
 20 21  1  0  0  0
 21 22  1  0  0  0
 22 23  2  0  0  0
 22 24  1  0  0  0
 24 26  1  0  0  0
 26 27  1  0  0  0
 27 28  1  0  0  0
 28 26  1  0  0  0
  3  4  1  0  0  0
  4  5  2  0  0  0
  5  6  1  0  0  0
  5  1  1  0  0  0
  6  7  2  0  0  0
  7  8  1  0  0  0
  7  9  1  0  0  0
  9 10  2  0  0  0
 10 11  1  0  0  0
 11 12  2  0  0  0
 12 13  1  0  0  0
 13 14  2  0  0  0
 14 15  1  0  0  0
 14  9  1  0  0  0
 15  6  1  0  0  0
 24 25  1  0  0  0
  8 16  1  0  0  0
  8 17  1  0  0  0
M  END
>  <minimizedAffinity>
-5.34874

>  <minimizedRMSD>
0.59219

$$$$
ChemDiv-G357-4910 MCULE-3569163391 MolPort-010-772-445 PubChem-50794127 ZINC000041089637 ZINC41089637


 34 37  0  0  0  0  0  0  0  0999 V2000
   17.1120   -9.7717   13.8195 C   0  0  0  0  0  0  0  0  0  0  0  0
   16.4108   -9.3582   14.9856 C   0  0  0  0  0  0  0  0  0  0  0  0
   14.9261   -9.1650   14.9684 C   0  0  0  0  0  0  0  0  0  0  0  0
   17.1172   -9.1920   16.2021 C   0  0  0  0  0  0  0  0  0  0  0  0
   18.4806   -9.4872   16.2596 C   0  0  0  0  0  0  0  0  0  0  0  0
   19.1652   -9.9010   15.1209 C   0  0  0  0  0  0  0  0  0  0  0  0
   18.4863  -10.0344   13.9124 C   0  0  0  0  0  0  0  0  0  0  0  0
   16.4707   -8.7750   17.4118 N   0  0  0  0  0  0  0  0  0  0  0  0
   15.4236   -7.7987   17.4819 C   0  0  0  0  0  0  0  0  0  0  0  0
   15.1552   -7.0855   16.4759 O   0  0  0  0  0  0  0  0  0  0  0  0
   16.7671   -9.1887   18.2546 H   0  0  0  0  0  0  0  0  0  0  0  0
   14.6874   -7.5990   18.7419 C   0  0  0  0  0  0  0  0  0  0  0  0
   13.4075   -7.0251   18.7339 C   0  0  0  0  0  0  0  0  0  0  0  0
   12.7084   -6.8356   19.9302 C   0  0  0  0  0  0  0  0  0  0  0  0
   11.1112   -6.1136   19.8876 Cl  0  0  0  0  0  0  0  0  0  0  0  0
   13.2880   -7.2198   21.1467 C   0  0  0  0  0  0  0  0  0  0  0  0
   12.6227   -7.0403   22.3139 F   0  0  0  0  0  0  0  0  0  0  0  0
   14.5624   -7.7929   21.1606 C   0  0  0  0  0  0  0  0  0  0  0  0
   15.2592   -7.9826   19.9638 C   0  0  0  0  0  0  0  0  0  0  0  0
   16.4749   -9.9567   12.4906 C   0  0  0  0  0  0  0  0  0  0  0  0
   15.2229  -10.0632   12.3762 O   0  0  0  0  0  0  0  0  0  0  0  0
   17.2836  -10.0084   11.3487 O   0  0  0  0  0  0  0  0  0  0  0  0
   16.8010  -10.4361   10.0789 C   0  0  0  0  0  0  0  0  0  0  0  0
   20.8177   -6.5998    5.3206 C   0  0  0  0  0  0  0  0  0  0  0  0
   19.8209   -7.2647    6.2013 C   0  0  0  0  0  0  0  0  0  0  0  0
   20.1194   -8.2384    7.1614 C   0  0  0  0  0  0  0  0  0  0  0  0
   18.8598   -8.4954    7.6688 C   0  0  0  0  0  0  0  0  0  0  0  0
   18.5210   -9.3729    8.6448 N   0  0  0  0  0  0  0  0  0  0  0  0
   17.2069   -9.4782    9.0091 C   0  0  0  0  0  0  0  0  0  0  0  0
   16.2226   -8.6955    8.3717 C   0  0  0  0  0  0  0  0  0  0  0  0
   16.6221   -7.8048    7.3680 C   0  0  0  0  0  0  0  0  0  0  0  0
   15.7817   -7.0810    6.7726 O   0  0  0  0  0  0  0  0  0  0  0  0
   17.9391   -7.7445    7.0577 N   0  0  0  0  0  0  0  0  0  0  0  0
   18.5284   -7.0058    6.1747 O   0  0  0  0  0  0  0  0  0  0  0  0
 24 25  1  0  0  0
 25 26  2  0  0  0
 26 27  1  0  0  0
 27 28  2  0  0  0
 28 29  1  0  0  0
 29 23  1  0  0  0
 29 30  2  0  0  0
 23 22  1  0  0  0
 22 20  1  0  0  0
 20 21  2  0  0  0
 20  1  1  0  0  0
  1  2  2  0  0  0
  2  3  1  0  0  0
  2  4  1  0  0  0
  4  8  1  0  0  0
  4  5  2  0  0  0
  8  9  1  0  0  0
  9 10  2  0  0  0
  9 12  1  0  0  0
 12 13  2  0  0  0
 13 14  1  0  0  0
 14 15  1  0  0  0
 14 16  2  0  0  0
 16 17  1  0  0  0
 16 18  1  0  0  0
 18 19  2  0  0  0
 19 12  1  0  0  0
  5  6  1  0  0  0
  6  7  2  0  0  0
  7  1  1  0  0  0
 30 31  1  0  0  0
 31 32  2  0  0  0
 31 33  1  0  0  0
 33 34  1  0  0  0
 33 27  1  0  0  0
 34 25  1  0  0  0
  8 11  1  0  0  0
M  END
>  <minimizedAffinity>
-5.33793

>  <minimizedRMSD>
1.76252

$$$$
ChemDiv-G357-1495 MCULE-8358897960 MolPort-007-847-542 PubChem-7949726 ZINC000006347628 ZINC06347628


 25 27  0  0  0  0  0  0  0  0999 V2000
   17.7571  -10.1893   14.7273 C   0  0  0  0  0  0  0  0  0  0  0  0
   18.3866  -11.2458   15.0116 O   0  0  0  0  0  0  0  0  0  0  0  0
   15.5833   -8.0920   17.7676 C   0  0  0  0  0  0  0  0  0  0  0  0
   16.4898   -9.0984   18.1159 C   0  0  0  0  0  0  0  0  0  0  0  0
   17.2004   -9.7843   17.1268 C   0  0  0  0  0  0  0  0  0  0  0  0
   17.0119   -9.4708   15.7735 C   0  0  0  0  0  0  0  0  0  0  0  0
   16.1043   -8.4630   15.4235 C   0  0  0  0  0  0  0  0  0  0  0  0
   15.3946   -7.7780   16.4135 C   0  0  0  0  0  0  0  0  0  0  0  0
   12.9358   -6.2849   19.9611 C   0  0  0  0  0  0  0  0  0  0  0  0
   13.5071   -6.9802   18.7788 C   0  0  0  0  0  0  0  0  0  0  0  0
   12.7812   -7.1787   17.7693 O   0  0  0  0  0  0  0  0  0  0  0  0
   14.8735   -7.4112   18.8114 N   0  0  0  0  0  0  0  0  0  0  0  0
   15.3769   -7.2201   19.6356 H   0  0  0  0  0  0  0  0  0  0  0  0
   17.7635   -9.6963   13.4205 O   0  0  0  0  0  0  0  0  0  0  0  0
   18.6240  -10.2250   12.4223 C   0  0  0  0  0  0  0  0  0  0  0  0
   18.1431   -9.8074   11.0790 C   0  0  0  0  0  0  0  0  0  0  0  0
   16.8725  -10.2088   10.6365 C   0  0  0  0  0  0  0  0  0  0  0  0
   16.4312   -9.7793    9.3800 C   0  0  0  0  0  0  0  0  0  0  0  0
   15.2966  -10.1276    8.9560 O   0  0  0  0  0  0  0  0  0  0  0  0
   17.2446   -8.9835    8.6334 N   0  0  0  0  0  0  0  0  0  0  0  0
   16.9688   -8.4799    7.3999 C   0  0  0  0  0  0  0  0  0  0  0  0
   17.9885   -7.6847    6.8638 C   0  0  0  0  0  0  0  0  0  0  0  0
   19.2539   -7.6321    7.9925 S   0  0  0  0  0  0  0  0  0  0  0  0
   18.4564   -8.6082    9.0892 C   0  0  0  0  0  0  0  0  0  0  0  0
   18.9197   -9.0026   10.3004 N   0  0  0  0  0  0  0  0  0  0  0  0
  9 10  1  0  0  0
 10 11  2  0  0  0
 10 12  1  0  0  0
 12  3  1  0  0  0
  3  4  2  0  0  0
  4  5  1  0  0  0
  5  6  2  0  0  0
  6  7  1  0  0  0
  6  1  1  0  0  0
  7  8  2  0  0  0
  8  3  1  0  0  0
  1  2  2  0  0  0
  1 14  1  0  0  0
 14 15  1  0  0  0
 15 16  1  0  0  0
 16 17  2  0  0  0
 17 18  1  0  0  0
 18 19  2  0  0  0
 18 20  1  0  0  0
 20 21  1  0  0  0
 21 22  2  0  0  0
 22 23  1  0  0  0
 23 24  1  0  0  0
 24 25  2  0  0  0
 24 20  1  0  0  0
 25 16  1  0  0  0
 12 13  1  0  0  0
M  END
>  <minimizedAffinity>
-5.32447

>  <minimizedRMSD>
1.63067

$$$$
ChemDiv-D483-1557 MCULE-5750026098 MolPort-007-710-952 PubChem-20899082 ZINC000015859245 ZINC15859245


 34 37  0  0  0  0  0  0  0  0999 V2000
   15.6711   -8.5571   13.9237 C   0  0  0  0  0  0  0  0  0  0  0  0
   16.7878   -9.4761   14.0767 N   0  0  0  0  0  0  0  0  0  0  0  0
   17.1290  -10.5117   13.2914 C   0  0  0  0  0  0  0  0  0  0  0  0
   18.2433  -11.1216   13.7423 N   0  0  0  0  0  0  0  0  0  0  0  0
   18.6260  -10.4707   14.8329 N   0  0  0  0  0  0  0  0  0  0  0  0
   17.7391   -9.4753   15.0250 C   0  0  0  0  0  0  0  0  0  0  0  0
   16.3751  -10.9425   12.0737 C   0  0  0  0  0  0  0  0  0  0  0  0
   16.7710  -10.1168   10.8824 C   0  0  0  0  0  0  0  0  0  0  0  0
   15.8753   -9.8880    9.8287 C   0  0  0  0  0  0  0  0  0  0  0  0
   14.4841  -10.4245    9.8572 C   0  0  0  0  0  0  0  0  0  0  0  0
   16.2693   -9.1576    8.7574 N   0  0  0  0  0  0  0  0  0  0  0  0
   17.5213   -8.6357    8.6708 C   0  0  0  0  0  0  0  0  0  0  0  0
   18.4248   -8.8430    9.6894 N   0  0  0  0  0  0  0  0  0  0  0  0
   19.6853   -8.3205    9.6081 C   0  0  0  0  0  0  0  0  0  0  0  0
   20.0818   -7.5714    8.5006 C   0  0  0  0  0  0  0  0  0  0  0  0
   19.1775   -7.3551    7.4649 C   0  0  0  0  0  0  0  0  0  0  0  0
   17.8910   -7.8849    7.5414 C   0  0  0  0  0  0  0  0  0  0  0  0
   16.9392   -7.6403    6.4198 C   0  0  0  0  0  0  0  0  0  0  0  0
   18.0632   -9.5751   10.7891 C   0  0  0  0  0  0  0  0  0  0  0  0
   18.8878   -9.7678   11.7277 O   0  0  0  0  0  0  0  0  0  0  0  0
   17.8332   -8.3051   16.3798 S   0  0  0  0  0  0  0  0  0  0  0  0
   16.5261   -9.1424   17.3309 C   0  0  0  0  0  0  0  0  0  0  0  0
   15.6091   -8.1468   17.9534 C   0  0  0  0  0  0  0  0  0  0  0  0
   14.9726   -7.3516   17.2130 O   0  0  0  0  0  0  0  0  0  0  0  0
   15.4589   -8.1184   19.3792 N   0  0  0  0  0  0  0  0  0  0  0  0
   15.9585   -8.7971   19.8880 H   0  0  0  0  0  0  0  0  0  0  0  0
   14.6562   -7.2042   20.1438 C   0  0  0  0  0  0  0  0  0  0  0  0
   15.2316   -6.5106   21.2250 C   0  0  0  0  0  0  0  0  0  0  0  0
   16.6616   -6.7107   21.5949 C   0  0  0  0  0  0  0  0  0  0  0  0
   14.4614   -5.6148   21.9737 C   0  0  0  0  0  0  0  0  0  0  0  0
   13.1187   -5.4022   21.6538 C   0  0  0  0  0  0  0  0  0  0  0  0
   12.3061   -4.4491   22.4533 C   0  0  0  0  0  0  0  0  0  0  0  0
   12.5407   -6.0848   20.5820 C   0  0  0  0  0  0  0  0  0  0  0  0
   13.3060   -6.9805   19.8312 C   0  0  0  0  0  0  0  0  0  0  0  0
  1  2  1  0  0  0
  2  3  1  0  0  0
  3  7  1  0  0  0
  3  4  2  0  0  0
  7  8  1  0  0  0
  8  9  2  0  0  0
  9 10  1  0  0  0
  9 11  1  0  0  0
 11 12  2  0  0  0
 12 13  1  0  0  0
 13 14  1  0  0  0
 13 19  1  0  0  0
 14 15  2  0  0  0
 15 16  1  0  0  0
 16 17  2  0  0  0
 17 18  1  0  0  0
 17 12  1  0  0  0
 19 20  2  0  0  0
 19  8  1  0  0  0
  4  5  1  0  0  0
  5  6  2  0  0  0
  6 21  1  0  0  0
  6  2  1  0  0  0
 21 22  1  0  0  0
 22 23  1  0  0  0
 23 24  2  0  0  0
 23 25  1  0  0  0
 25 27  1  0  0  0
 27 28  2  0  0  0
 28 29  1  0  0  0
 28 30  1  0  0  0
 30 31  2  0  0  0
 31 32  1  0  0  0
 31 33  1  0  0  0
 33 34  2  0  0  0
 34 27  1  0  0  0
 25 26  1  0  0  0
M  END
>  <minimizedAffinity>
-5.29749

>  <minimizedRMSD>
3.10079

$$$$
ChemDiv-D549-2983 MCULE-1822376192 MolPort-010-800-917 PubChem-53046850 ZINC000064794677 ZINC64794677


 29 32  0  0  0  0  0  0  0  0999 V2000
   16.5989   -9.6471   12.1553 C   0  0  0  0  0  0  0  0  0  0  0  0
   15.2961   -9.7108   12.4958 N   0  0  0  0  0  0  0  0  0  0  0  0
   15.2432   -9.9734   13.7940 N   0  0  0  0  0  0  0  0  0  0  0  0
   16.5149  -10.0760   14.2223 C   0  0  0  0  0  0  0  0  0  0  0  0
   17.3921   -9.8742   13.2231 N   0  0  0  0  0  0  0  0  0  0  0  0
   18.9753   -7.9016   11.2187 N   0  0  0  0  0  0  0  0  0  0  0  0
   18.1492   -8.6659   10.3447 C   0  0  0  0  0  0  0  0  0  0  0  0
   17.0552   -9.4326   10.7706 C   0  0  0  0  0  0  0  0  0  0  0  0
   16.2466  -10.0427    9.4095 S   0  0  0  0  0  0  0  0  0  0  0  0
   17.3013   -9.3569    8.3006 C   0  0  0  0  0  0  0  0  0  0  0  0
   17.2390   -9.4412    6.9488 N   0  0  0  0  0  0  0  0  0  0  0  0
   18.1748   -8.7940    6.1953 C   0  0  0  0  0  0  0  0  0  0  0  0
   19.1926   -8.0403    6.8118 C   0  0  0  0  0  0  0  0  0  0  0  0
   19.2475   -7.9542    8.2118 C   0  0  0  0  0  0  0  0  0  0  0  0
   18.2810   -8.6329    8.9535 C   0  0  0  0  0  0  0  0  0  0  0  0
   18.8453   -7.9573   12.1929 H   0  0  0  0  0  0  0  0  0  0  0  0
   19.6762   -7.3179   10.8482 H   0  0  0  0  0  0  0  0  0  0  0  0
   16.9636  -10.4867   15.9089 S   0  0  0  0  0  0  0  0  0  0  0  0
   17.2422   -8.7471   16.3674 C   0  0  0  0  0  0  0  0  0  0  0  0
   16.0278   -8.1717   17.0109 C   0  0  0  0  0  0  0  0  0  0  0  0
   15.1108   -7.6949   16.2906 O   0  0  0  0  0  0  0  0  0  0  0  0
   15.9141   -8.1595   18.4347 N   0  0  0  0  0  0  0  0  0  0  0  0
   16.6546   -8.5177   18.9755 H   0  0  0  0  0  0  0  0  0  0  0  0
   14.7391   -7.6346   19.1097 C   0  0  0  0  0  0  0  0  0  0  0  0
   14.7416   -8.0995   20.5514 C   0  0  0  0  0  0  0  0  0  0  0  0
   15.1780   -6.6909   20.2094 C   0  0  0  0  0  0  0  0  0  0  0  0
   18.8328  -10.0906   13.2638 C   0  0  0  0  0  0  0  0  0  0  0  0
   19.1413  -11.3482   14.0046 C   0  0  0  0  0  0  0  0  0  0  0  0
   18.6447  -12.5058   13.5822 C   0  0  0  0  0  0  0  0  0  0  0  0
  6  7  1  0  0  0
  7  8  2  0  0  0
  8  9  1  0  0  0
  8  1  1  0  0  0
  9 10  1  0  0  0
 10 11  2  0  0  0
 11 12  1  0  0  0
 12 13  2  0  0  0
 13 14  1  0  0  0
 14 15  2  0  0  0
 15  7  1  0  0  0
 15 10  1  0  0  0
  1  2  2  0  0  0
  2  3  1  0  0  0
  3  4  2  0  0  0
  4 18  1  0  0  0
  4  5  1  0  0  0
 18 19  1  0  0  0
 19 20  1  0  0  0
 20 21  2  0  0  0
 20 22  1  0  0  0
 22 24  1  0  0  0
 24 25  1  0  0  0
 25 26  1  0  0  0
 26 24  1  0  0  0
  5 27  1  0  0  0
  5  1  1  0  0  0
 27 28  1  0  0  0
 28 29  2  0  0  0
  6 16  1  0  0  0
  6 17  1  0  0  0
 22 23  1  0  0  0
M  END
>  <minimizedAffinity>
-5.27256

>  <minimizedRMSD>
1.09216

$$$$
ChemDiv-D483-1798 MCULE-9236112473 MolPort-007-710-993 PubChem-20899119 ZINC000015859287 ZINC15859287


 33 36  0  0  0  0  0  0  0  0999 V2000
   16.3701   -8.6607   16.6941 C   0  0  0  0  0  0  0  0  0  0  0  0
   15.8582   -7.7983   15.7949 N   0  0  0  0  0  0  0  0  0  0  0  0
   15.7649   -8.4523   14.6446 N   0  0  0  0  0  0  0  0  0  0  0  0
   16.2242   -9.7005   14.8638 C   0  0  0  0  0  0  0  0  0  0  0  0
   16.6124   -9.8603   16.1404 N   0  0  0  0  0  0  0  0  0  0  0  0
   17.1438  -11.0538   16.7792 C   0  0  0  0  0  0  0  0  0  0  0  0
   16.6847   -8.2423   18.4084 S   0  0  0  0  0  0  0  0  0  0  0  0
   14.9531   -8.5089   18.8992 C   0  0  0  0  0  0  0  0  0  0  0  0
   13.9577   -6.9801   20.6432 N   0  0  0  0  0  0  0  0  0  0  0  0
   14.3167   -7.2176   19.2784 C   0  0  0  0  0  0  0  0  0  0  0  0
   14.1556   -6.3242   18.4047 O   0  0  0  0  0  0  0  0  0  0  0  0
   14.2571   -7.6351   21.3145 H   0  0  0  0  0  0  0  0  0  0  0  0
   11.8697   -5.6125   20.6677 C   0  0  0  0  0  0  0  0  0  0  0  0
   13.1940   -5.8580   21.1042 C   0  0  0  0  0  0  0  0  0  0  0  0
   13.7762   -5.0151   22.0576 C   0  0  0  0  0  0  0  0  0  0  0  0
   13.0815   -3.9092   22.5497 C   0  0  0  0  0  0  0  0  0  0  0  0
   11.7883   -3.6433   22.1013 C   0  0  0  0  0  0  0  0  0  0  0  0
   11.1850   -4.4925   21.1721 C   0  0  0  0  0  0  0  0  0  0  0  0
   11.1850   -6.1370   18.2727 C   0  0  0  0  0  0  0  0  0  0  0  0
   11.1850   -6.5757   19.7304 C   0  0  0  0  0  0  0  0  0  0  0  0
   16.2915  -10.7627   13.8132 C   0  0  0  0  0  0  0  0  0  0  0  0
   16.9811  -10.2499   12.5807 C   0  0  0  0  0  0  0  0  0  0  0  0
   18.3505   -9.9455   12.5888 C   0  0  0  0  0  0  0  0  0  0  0  0
   19.1864  -10.1466   13.8074 C   0  0  0  0  0  0  0  0  0  0  0  0
   18.9399   -9.4636   11.4672 N   0  0  0  0  0  0  0  0  0  0  0  0
   18.2341   -9.2638   10.3263 C   0  0  0  0  0  0  0  0  0  0  0  0
   18.8877   -8.7639    9.1975 C   0  0  0  0  0  0  0  0  0  0  0  0
   18.1673   -8.5568    8.0229 C   0  0  0  0  0  0  0  0  0  0  0  0
   16.8057   -8.8495    7.9853 C   0  0  0  0  0  0  0  0  0  0  0  0
   16.1819   -9.3481    9.1302 C   0  0  0  0  0  0  0  0  0  0  0  0
   16.8888   -9.5512   10.2825 N   0  0  0  0  0  0  0  0  0  0  0  0
   16.2577  -10.0407   11.3949 C   0  0  0  0  0  0  0  0  0  0  0  0
   15.0227  -10.3084   11.3626 O   0  0  0  0  0  0  0  0  0  0  0  0
 19 20  1  0  0  0
 20 13  1  0  0  0
 13 14  2  0  0  0
 14  9  1  0  0  0
 14 15  1  0  0  0
  9 10  1  0  0  0
 10 11  2  0  0  0
 10  8  1  0  0  0
  8  7  1  0  0  0
  7  1  1  0  0  0
  1  2  2  0  0  0
  2  3  1  0  0  0
  3  4  2  0  0  0
  4 21  1  0  0  0
  4  5  1  0  0  0
 21 22  1  0  0  0
 22 23  2  0  0  0
 23 24  1  0  0  0
 23 25  1  0  0  0
 25 26  2  0  0  0
 26 27  1  0  0  0
 27 28  2  0  0  0
 28 29  1  0  0  0
 29 30  2  0  0  0
 30 31  1  0  0  0
 31 32  1  0  0  0
 31 26  1  0  0  0
 32 33  2  0  0  0
 32 22  1  0  0  0
  5  6  1  0  0  0
  5  1  1  0  0  0
 15 16  2  0  0  0
 16 17  1  0  0  0
 17 18  2  0  0  0
 18 13  1  0  0  0
  9 12  1  0  0  0
M  END
>  <minimizedAffinity>
-5.24401

>  <minimizedRMSD>
3.70216

$$$$
ChemDiv-C679-4376 MCULE-1416841652 MolPort-007-655-857 PubChem-20874251 ZINC000013368084


 33 36  0  0  0  0  0  0  0  0999 V2000
   17.0262   -9.7218   15.3482 C   0  0  0  0  0  0  0  0  0  0  0  0
   17.8287  -10.6805   15.9864 C   0  0  0  0  0  0  0  0  0  0  0  0
   17.8515  -10.7625   17.3807 C   0  0  0  0  0  0  0  0  0  0  0  0
   17.0737   -9.8883   18.1446 C   0  0  0  0  0  0  0  0  0  0  0  0
   16.2698   -8.9277   17.5223 C   0  0  0  0  0  0  0  0  0  0  0  0
   16.2515   -8.8513   16.1212 C   0  0  0  0  0  0  0  0  0  0  0  0
   15.4856   -8.0492   18.3406 N   0  0  0  0  0  0  0  0  0  0  0  0
   14.2640   -7.3967   17.9710 C   0  0  0  0  0  0  0  0  0  0  0  0
   13.7695   -7.5350   16.8212 O   0  0  0  0  0  0  0  0  0  0  0  0
   15.8208   -7.8765   19.2500 H   0  0  0  0  0  0  0  0  0  0  0  0
   13.5895   -6.5068   18.9520 C   0  0  0  0  0  0  0  0  0  0  0  0
   14.2920   -6.5412   20.1872 O   0  0  0  0  0  0  0  0  0  0  0  0
   13.7328   -6.0908   21.3859 C   0  0  0  0  0  0  0  0  0  0  0  0
   12.4445   -5.5324   21.4342 C   0  0  0  0  0  0  0  0  0  0  0  0
   11.9131   -5.0913   22.6497 C   0  0  0  0  0  0  0  0  0  0  0  0
   12.6643   -5.2050   23.8228 C   0  0  0  0  0  0  0  0  0  0  0  0
   13.9466   -5.7597   23.7804 C   0  0  0  0  0  0  0  0  0  0  0  0
   14.4783   -6.2011   22.5648 C   0  0  0  0  0  0  0  0  0  0  0  0
   12.1000   -4.7361   25.1150 C   0  0  0  0  0  0  0  0  0  0  0  0
   16.9797   -9.6133   13.9561 O   0  0  0  0  0  0  0  0  0  0  0  0
   17.5642  -10.5779   13.0909 C   0  0  0  0  0  0  0  0  0  0  0  0
   17.0605   -9.3099    9.1012 N   0  0  0  0  0  0  0  0  0  0  0  0
   17.0503   -8.8492    7.8526 N   0  0  0  0  0  0  0  0  0  0  0  0
   18.2471   -8.3239    7.4950 C   0  0  0  0  0  0  0  0  0  0  0  0
   19.3806   -8.3990    8.7566 S   0  0  0  0  0  0  0  0  0  0  0  0
   18.2406   -9.1490    9.7363 C   0  0  0  0  0  0  0  0  0  0  0  0
   18.4227   -9.5557   11.0163 N   0  0  0  0  0  0  0  0  0  0  0  0
   17.3897  -10.1504   11.6778 C   0  0  0  0  0  0  0  0  0  0  0  0
   16.1475  -10.3234   11.0451 C   0  0  0  0  0  0  0  0  0  0  0  0
   15.9996   -9.8885    9.7235 C   0  0  0  0  0  0  0  0  0  0  0  0
   14.8994  -10.0320    9.1271 O   0  0  0  0  0  0  0  0  0  0  0  0
   18.5022   -7.6991    6.1692 C   0  0  0  0  0  0  0  0  0  0  0  0
   18.9749   -6.2713    6.3551 C   0  0  0  0  0  0  0  0  0  0  0  0
 22 23  1  0  0  0
 23 24  2  0  0  0
 24 25  1  0  0  0
 25 26  1  0  0  0
 26 27  2  0  0  0
 27 28  1  0  0  0
 28 21  1  0  0  0
 21 20  1  0  0  0
 20  1  1  0  0  0
  1  2  2  0  0  0
  2  3  1  0  0  0
  3  4  2  0  0  0
  4  5  1  0  0  0
  5  6  2  0  0  0
  5  7  1  0  0  0
  7  8  1  0  0  0
  8 11  1  0  0  0
 11 12  1  0  0  0
 12 13  1  0  0  0
 13 14  2  0  0  0
 14 15  1  0  0  0
 15 16  2  0  0  0
 16 17  1  0  0  0
 17 18  2  0  0  0
 16 19  1  0  0  0
  8  9  2  0  0  0
 28 29  2  0  0  0
 29 30  1  0  0  0
 30 31  2  0  0  0
 24 32  1  0  0  0
 32 33  1  0  0  0
 26 22  1  0  0  0
  6  1  1  0  0  0
 18 13  1  0  0  0
 30 22  1  0  0  0
  7 10  1  0  0  0
M  END
>  <minimizedAffinity>
-5.23758

>  <minimizedRMSD>
1.85947

$$$$
ChemDiv-L278-0085 MCULE-8364970766 MolPort-010-724-769 PubChem-50824106 ZINC000033275836 ZINC33275836


 34 37  0  0  0  0  0  0  0  0999 V2000
   17.2076   -8.6092   10.7141 C   0  0  0  0  0  0  0  0  0  0  0  0
   17.7873   -8.4337    9.3483 C   0  0  0  0  0  0  0  0  0  0  0  0
   17.1009   -8.7257    8.2114 N   0  0  0  0  0  0  0  0  0  0  0  0
   17.9878   -8.4276    7.2426 C   0  0  0  0  0  0  0  0  0  0  0  0
   17.8093   -8.5388    5.8674 C   0  0  0  0  0  0  0  0  0  0  0  0
   18.8833   -8.1733    5.0260 C   0  0  0  0  0  0  0  0  0  0  0  0
   20.0882   -7.6939    5.6019 C   0  0  0  0  0  0  0  0  0  0  0  0
   20.2388   -7.5912    6.9966 C   0  0  0  0  0  0  0  0  0  0  0  0
   19.1550   -7.9741    7.7823 C   0  0  0  0  0  0  0  0  0  0  0  0
   19.0404   -7.9716    9.1157 N   0  0  0  0  0  0  0  0  0  0  0  0
   20.0389   -7.5619   10.0918 C   0  0  0  0  0  0  0  0  0  0  0  0
   18.7586   -8.2411    3.5511 C   0  0  0  0  0  0  0  0  0  0  0  0
   18.0022   -7.4161    2.9682 O   0  0  0  0  0  0  0  0  0  0  0  0
   19.4600   -9.2189    2.7634 N   0  0  0  0  0  0  0  0  0  0  0  0
   20.6650   -9.9053    3.1874 C   0  0  0  0  0  0  0  0  0  0  0  0
   21.2034  -10.6000    1.9517 C   0  0  0  0  0  0  0  0  0  0  0  0
   20.0916  -10.5506    0.9145 C   0  0  0  0  0  0  0  0  0  0  0  0
   19.1289   -9.4743    1.3762 C   0  0  0  0  0  0  0  0  0  0  0  0
   15.5875  -10.0988   11.4932 C   0  0  0  0  0  0  0  0  0  0  0  0
   16.9394  -10.0174   10.9665 N   0  0  0  0  0  0  0  0  0  0  0  0
   18.0259  -10.5701   12.2062 S   0  0  0  0  0  0  0  0  0  0  0  0
   18.0583  -12.0733   12.2087 O   0  0  0  0  0  0  0  0  0  0  0  0
   19.4135  -10.0699   11.9149 O   0  0  0  0  0  0  0  0  0  0  0  0
   17.5261  -10.0007   13.7943 C   0  0  0  0  0  0  0  0  0  0  0  0
   16.1673   -9.8588   14.0940 C   0  0  0  0  0  0  0  0  0  0  0  0
   15.7710   -9.4153   15.3585 C   0  0  0  0  0  0  0  0  0  0  0  0
   16.7304   -9.1090   16.3354 C   0  0  0  0  0  0  0  0  0  0  0  0
   18.0882   -9.2534   16.0299 C   0  0  0  0  0  0  0  0  0  0  0  0
   18.4857   -9.6979   14.7659 C   0  0  0  0  0  0  0  0  0  0  0  0
   16.3624   -8.6517   17.6437 N   0  0  0  0  0  0  0  0  0  0  0  0
   15.2381   -7.8289   17.9798 C   0  0  0  0  0  0  0  0  0  0  0  0
   15.0074   -7.4575   19.4001 C   0  0  0  0  0  0  0  0  0  0  0  0
   14.4433   -7.4129   17.0962 O   0  0  0  0  0  0  0  0  0  0  0  0
   16.9423   -8.9319   18.3883 H   0  0  0  0  0  0  0  0  0  0  0  0
 19 20  1  0  0  0
 20  1  1  0  0  0
 20 21  1  0  0  0
  1  2  1  0  0  0
  2  3  2  0  0  0
  3  4  1  0  0  0
  4  5  2  0  0  0
  5  6  1  0  0  0
  6  7  2  0  0  0
  6 12  1  0  0  0
  7  8  1  0  0  0
  8  9  2  0  0  0
  9 10  1  0  0  0
  9  4  1  0  0  0
 10 11  1  0  0  0
 10  2  1  0  0  0
 12 13  2  0  0  0
 12 14  1  0  0  0
 14 15  1  0  0  0
 15 16  1  0  0  0
 16 17  1  0  0  0
 17 18  1  0  0  0
 18 14  1  0  0  0
 21 22  2  0  0  0
 21 23  2  0  0  0
 21 24  1  0  0  0
 24 25  2  0  0  0
 25 26  1  0  0  0
 26 27  2  0  0  0
 27 30  1  0  0  0
 27 28  1  0  0  0
 30 31  1  0  0  0
 31 32  1  0  0  0
 31 33  2  0  0  0
 28 29  2  0  0  0
 29 24  1  0  0  0
 30 34  1  0  0  0
M  END
>  <minimizedAffinity>
-5.19237

>  <minimizedRMSD>
1.68212

$$$$
ChemDiv-G357-0526 MCULE-7935657230 MolPort-007-847-221 PubChem-20953004 ZINC000015771622


 34 37  0  0  0  0  0  0  0  0999 V2000
   17.3498   -9.8213   13.8869 C   0  0  0  0  0  0  0  0  0  0  0  0
   16.5283   -8.7030   14.0781 C   0  0  0  0  0  0  0  0  0  0  0  0
   16.1660   -8.3063   15.3681 C   0  0  0  0  0  0  0  0  0  0  0  0
   16.6212   -9.0227   16.4847 C   0  0  0  0  0  0  0  0  0  0  0  0
   17.4408  -10.1395   16.2928 C   0  0  0  0  0  0  0  0  0  0  0  0
   17.8039  -10.5376   15.0030 C   0  0  0  0  0  0  0  0  0  0  0  0
   16.2682   -8.6483   17.8229 N   0  0  0  0  0  0  0  0  0  0  0  0
   15.2106   -7.7647   18.2159 C   0  0  0  0  0  0  0  0  0  0  0  0
   14.4765   -7.2017   17.3612 O   0  0  0  0  0  0  0  0  0  0  0  0
   16.8087   -9.0388   18.5472 H   0  0  0  0  0  0  0  0  0  0  0  0
   14.9574   -7.5302   19.6654 C   0  0  0  0  0  0  0  0  0  0  0  0
   13.6929   -6.9014   19.8503 O   0  0  0  0  0  0  0  0  0  0  0  0
   12.5068   -7.3778   19.2807 C   0  0  0  0  0  0  0  0  0  0  0  0
   12.0416   -8.6807   19.5251 C   0  0  0  0  0  0  0  0  0  0  0  0
   10.8518   -9.1255   18.9416 C   0  0  0  0  0  0  0  0  0  0  0  0
   10.1189   -8.2718   18.1127 C   0  0  0  0  0  0  0  0  0  0  0  0
   10.5754   -6.9737   17.8681 C   0  0  0  0  0  0  0  0  0  0  0  0
   11.7657   -6.5288   18.4515 C   0  0  0  0  0  0  0  0  0  0  0  0
   17.7285  -10.2353   12.5263 C   0  0  0  0  0  0  0  0  0  0  0  0
   18.4743  -11.2392   12.3553 O   0  0  0  0  0  0  0  0  0  0  0  0
   17.2589   -9.5122   11.4276 O   0  0  0  0  0  0  0  0  0  0  0  0
   16.7084  -10.1528   10.2861 C   0  0  0  0  0  0  0  0  0  0  0  0
   17.7548   -7.9354    6.8557 N   0  0  0  0  0  0  0  0  0  0  0  0
   18.2334   -7.2955    5.7915 N   0  0  0  0  0  0  0  0  0  0  0  0
   19.5156   -7.6428    5.5239 C   0  0  0  0  0  0  0  0  0  0  0  0
   20.1185   -8.7706    6.6404 S   0  0  0  0  0  0  0  0  0  0  0  0
   18.6394   -8.7733    7.4364 C   0  0  0  0  0  0  0  0  0  0  0  0
   18.3185   -9.4988    8.5355 N   0  0  0  0  0  0  0  0  0  0  0  0
   17.0671   -9.3859    9.0640 C   0  0  0  0  0  0  0  0  0  0  0  0
   16.1284   -8.5151    8.4862 C   0  0  0  0  0  0  0  0  0  0  0  0
   16.4992   -7.7825    7.3533 C   0  0  0  0  0  0  0  0  0  0  0  0
   15.6796   -6.9952    6.8099 O   0  0  0  0  0  0  0  0  0  0  0  0
   20.3094   -7.0472    4.4156 C   0  0  0  0  0  0  0  0  0  0  0  0
   21.7611   -6.9212    4.8320 C   0  0  0  0  0  0  0  0  0  0  0  0
 23 24  1  0  0  0
 24 25  2  0  0  0
 25 26  1  0  0  0
 26 27  1  0  0  0
 27 28  2  0  0  0
 28 29  1  0  0  0
 29 22  1  0  0  0
 22 21  1  0  0  0
 21 19  1  0  0  0
 19 20  2  0  0  0
 19  1  1  0  0  0
  1  2  2  0  0  0
  2  3  1  0  0  0
  3  4  2  0  0  0
  4  5  1  0  0  0
  5  6  2  0  0  0
  4  7  1  0  0  0
  7  8  1  0  0  0
  8 11  1  0  0  0
 11 12  1  0  0  0
 12 13  1  0  0  0
 13 14  2  0  0  0
 14 15  1  0  0  0
 15 16  2  0  0  0
 16 17  1  0  0  0
 17 18  2  0  0  0
  8  9  2  0  0  0
 29 30  2  0  0  0
 30 31  1  0  0  0
 31 32  2  0  0  0
 25 33  1  0  0  0
 33 34  1  0  0  0
 27 23  1  0  0  0
  6  1  1  0  0  0
 18 13  1  0  0  0
 31 23  1  0  0  0
  7 10  1  0  0  0
M  END
>  <minimizedAffinity>
-5.16504

>  <minimizedRMSD>
1.97755

$$$$
ChemDiv-G357-0759 MCULE-1405060237 MolPort-007-847-319 PubChem-20953040 ZINC000015771775 ZINC15771775


 30 32  0  0  0  0  0  0  0  0999 V2000
   17.5050   -9.7662   13.4624 O   0  0  0  0  0  0  0  0  0  0  0  0
   17.8702   -9.9188   14.8019 C   0  0  0  0  0  0  0  0  0  0  0  0
   18.8989  -10.5829   15.1090 O   0  0  0  0  0  0  0  0  0  0  0  0
   15.4760   -8.1151   17.8648 C   0  0  0  0  0  0  0  0  0  0  0  0
   15.3331   -7.7212   16.5261 C   0  0  0  0  0  0  0  0  0  0  0  0
   16.1146   -8.3106   15.5287 C   0  0  0  0  0  0  0  0  0  0  0  0
   17.0495   -9.3011   15.8558 C   0  0  0  0  0  0  0  0  0  0  0  0
   17.1924   -9.6942   17.1938 C   0  0  0  0  0  0  0  0  0  0  0  0
   16.4100   -9.1038   18.1904 C   0  0  0  0  0  0  0  0  0  0  0  0
   13.4618   -6.8136   18.7703 C   0  0  0  0  0  0  0  0  0  0  0  0
   12.9330   -6.6454   17.6386 O   0  0  0  0  0  0  0  0  0  0  0  0
   14.6930   -7.5327   18.9157 N   0  0  0  0  0  0  0  0  0  0  0  0
   15.0369   -7.6378   19.8322 H   0  0  0  0  0  0  0  0  0  0  0  0
   12.8041   -4.7580   19.9644 C   0  0  0  0  0  0  0  0  0  0  0  0
   12.7903   -6.2743   19.9852 C   0  0  0  0  0  0  0  0  0  0  0  0
   17.9473  -10.6650   12.4560 C   0  0  0  0  0  0  0  0  0  0  0  0
   17.7992  -10.0285   11.1207 C   0  0  0  0  0  0  0  0  0  0  0  0
   16.6302  -10.2419   10.3716 C   0  0  0  0  0  0  0  0  0  0  0  0
   16.5022   -9.6095    9.1301 C   0  0  0  0  0  0  0  0  0  0  0  0
   15.4684   -9.7841    8.4320 O   0  0  0  0  0  0  0  0  0  0  0  0
   17.5096   -8.8066    8.6966 N   0  0  0  0  0  0  0  0  0  0  0  0
   17.5129   -8.1497    7.5392 N   0  0  0  0  0  0  0  0  0  0  0  0
   18.6437   -7.4221    7.3705 C   0  0  0  0  0  0  0  0  0  0  0  0
   19.7068   -7.5814    8.6845 S   0  0  0  0  0  0  0  0  0  0  0  0
   18.6187   -8.6132    9.4409 C   0  0  0  0  0  0  0  0  0  0  0  0
   18.7799   -9.2081   10.6480 N   0  0  0  0  0  0  0  0  0  0  0  0
   18.9231   -6.6065    6.1474 C   0  0  0  0  0  0  0  0  0  0  0  0
   19.7206   -7.3640    5.0838 C   0  0  0  0  0  0  0  0  0  0  0  0
   21.2149   -7.1354    5.2239 C   0  0  0  0  0  0  0  0  0  0  0  0
   19.4057   -8.8492    5.0885 C   0  0  0  0  0  0  0  0  0  0  0  0
 14 15  1  0  0  0
 15 10  1  0  0  0
 10 11  2  0  0  0
 10 12  1  0  0  0
 12  4  1  0  0  0
  4  5  2  0  0  0
  5  6  1  0  0  0
  6  7  2  0  0  0
  7  8  1  0  0  0
  7  2  1  0  0  0
  8  9  2  0  0  0
  9  4  1  0  0  0
  2  3  2  0  0  0
  2  1  1  0  0  0
  1 16  1  0  0  0
 16 17  1  0  0  0
 17 18  2  0  0  0
 18 19  1  0  0  0
 19 20  2  0  0  0
 19 21  1  0  0  0
 21 22  1  0  0  0
 22 23  2  0  0  0
 23 27  1  0  0  0
 23 24  1  0  0  0
 27 28  1  0  0  0
 28 29  1  0  0  0
 28 30  1  0  0  0
 24 25  1  0  0  0
 25 26  2  0  0  0
 25 21  1  0  0  0
 26 17  1  0  0  0
 12 13  1  0  0  0
M  END
>  <minimizedAffinity>
-5.16267

>  <minimizedRMSD>
1.68200

$$$$
ChemDiv-D103-1283 CHEMBL1574459 MCULE-9913996455 MolPort-000-521-273 PubChem-4901475 ZINC000005351450 ZINC05351450


 29 31  0  0  0  0  0  0  0  0999 V2000
   17.6527  -11.3793   13.4310 N   0  0  0  0  0  0  0  0  0  0  0  0
   18.2505  -10.2008   12.8807 C   0  0  0  0  0  0  0  0  0  0  0  0
   18.9988   -9.4784   13.5931 O   0  0  0  0  0  0  0  0  0  0  0  0
   17.1106  -11.9513   12.8410 H   0  0  0  0  0  0  0  0  0  0  0  0
   18.0007   -9.8278   11.4815 C   0  0  0  0  0  0  0  0  0  0  0  0
   16.8223  -10.2322   10.8409 C   0  0  0  0  0  0  0  0  0  0  0  0
   16.6070   -9.8651    9.5139 C   0  0  0  0  0  0  0  0  0  0  0  0
   15.5491  -10.2255    8.9315 O   0  0  0  0  0  0  0  0  0  0  0  0
   17.5736   -9.0997    8.8500 C   0  0  0  0  0  0  0  0  0  0  0  0
   17.4138   -8.6999    7.5161 C   0  0  0  0  0  0  0  0  0  0  0  0
   18.4036   -7.9360    6.8909 C   0  0  0  0  0  0  0  0  0  0  0  0
   18.2006   -7.4387    5.2255 Cl  0  0  0  0  0  0  0  0  0  0  0  0
   19.5553   -7.5686    7.5936 C   0  0  0  0  0  0  0  0  0  0  0  0
   19.7228   -7.9632    8.9244 C   0  0  0  0  0  0  0  0  0  0  0  0
   18.7384   -8.7272    9.5579 C   0  0  0  0  0  0  0  0  0  0  0  0
   18.9024   -9.0999   10.8239 O   0  0  0  0  0  0  0  0  0  0  0  0
   17.8112  -11.7695   14.8255 C   0  0  0  0  0  0  0  0  0  0  0  0
   15.8102   -8.9709   17.3907 C   0  0  0  0  0  0  0  0  0  0  0  0
   15.4434   -9.0739   16.0440 C   0  0  0  0  0  0  0  0  0  0  0  0
   16.0911   -9.9889   15.2089 C   0  0  0  0  0  0  0  0  0  0  0  0
   17.1080  -10.8042   15.7184 C   0  0  0  0  0  0  0  0  0  0  0  0
   17.4796  -10.6972   17.0627 C   0  0  0  0  0  0  0  0  0  0  0  0
   16.8317   -9.7819   17.8973 C   0  0  0  0  0  0  0  0  0  0  0  0
   16.1491   -7.1238   19.5312 N   0  0  0  0  0  0  0  0  0  0  0  0
   15.0056   -7.8145   18.4351 S   0  0  0  0  0  0  0  0  0  0  0  0
   13.9331   -8.5080   19.2271 O   0  0  0  0  0  0  0  0  0  0  0  0
   14.3905   -6.7265   17.6016 O   0  0  0  0  0  0  0  0  0  0  0  0
   15.6770   -6.4521   20.1364 H   0  0  0  0  0  0  0  0  0  0  0  0
   16.8821   -6.6497   19.0037 H   0  0  0  0  0  0  0  0  0  0  0  0
 24 25  1  0  0  0
 25 26  2  0  0  0
 25 27  2  0  0  0
 25 18  1  0  0  0
 18 19  2  0  0  0
 19 20  1  0  0  0
 20 21  2  0  0  0
 21 17  1  0  0  0
 21 22  1  0  0  0
 17  1  1  0  0  0
  1  2  1  0  0  0
  2  3  2  0  0  0
  2  5  1  0  0  0
  5  6  2  0  0  0
  6  7  1  0  0  0
  7  8  2  0  0  0
  7  9  1  0  0  0
  9 10  2  0  0  0
 10 11  1  0  0  0
 11 12  1  0  0  0
 11 13  2  0  0  0
 13 14  1  0  0  0
 14 15  2  0  0  0
 15 16  1  0  0  0
 15  9  1  0  0  0
 16  5  1  0  0  0
 22 23  2  0  0  0
 23 18  1  0  0  0
 24 28  1  0  0  0
 24 29  1  0  0  0
  1  4  1  0  0  0
M  END
>  <minimizedAffinity>
-5.15555

>  <minimizedRMSD>
1.31264

$$$$
ChemDiv-D483-1559 MCULE-3255509292 MolPort-007-710-954 PubChem-20899083 ZINC000015859247 ZINC15859247


 34 37  0  0  0  0  0  0  0  0999 V2000
   15.2434  -10.0626   14.9662 C   0  0  0  0  0  0  0  0  0  0  0  0
   16.6745   -9.9956   14.7185 N   0  0  0  0  0  0  0  0  0  0  0  0
   17.3601  -10.4275   13.6460 C   0  0  0  0  0  0  0  0  0  0  0  0
   18.6800  -10.1920   13.7833 N   0  0  0  0  0  0  0  0  0  0  0  0
   18.8495   -9.6068   14.9617 N   0  0  0  0  0  0  0  0  0  0  0  0
   17.6288   -9.4914   15.5184 C   0  0  0  0  0  0  0  0  0  0  0  0
   16.7501  -11.0383   12.4236 C   0  0  0  0  0  0  0  0  0  0  0  0
   17.0206  -10.1967   11.2064 C   0  0  0  0  0  0  0  0  0  0  0  0
   15.9995   -9.9122   10.2892 C   0  0  0  0  0  0  0  0  0  0  0  0
   14.6234  -10.4628   10.4568 C   0  0  0  0  0  0  0  0  0  0  0  0
   16.2607   -9.1351    9.2106 N   0  0  0  0  0  0  0  0  0  0  0  0
   17.4979   -8.6210    8.9832 C   0  0  0  0  0  0  0  0  0  0  0  0
   18.5273   -8.8950    9.8557 N   0  0  0  0  0  0  0  0  0  0  0  0
   19.7759   -8.3876    9.6276 C   0  0  0  0  0  0  0  0  0  0  0  0
   20.0339   -7.5868    8.5155 C   0  0  0  0  0  0  0  0  0  0  0  0
   19.0016   -7.3028    7.6267 C   0  0  0  0  0  0  0  0  0  0  0  0
   17.7261   -7.8169    7.8530 C   0  0  0  0  0  0  0  0  0  0  0  0
   16.6364   -7.5027    6.8846 C   0  0  0  0  0  0  0  0  0  0  0  0
   18.3034   -9.6781   10.9569 C   0  0  0  0  0  0  0  0  0  0  0  0
   19.2477   -9.9399   11.7556 O   0  0  0  0  0  0  0  0  0  0  0  0
   17.3311   -8.7473   17.1195 S   0  0  0  0  0  0  0  0  0  0  0  0
   15.6868   -8.1476   16.6116 C   0  0  0  0  0  0  0  0  0  0  0  0
   14.8695   -7.6382   17.7573 C   0  0  0  0  0  0  0  0  0  0  0  0
   13.7204   -7.1827   17.5161 O   0  0  0  0  0  0  0  0  0  0  0  0
   15.3791   -7.6711   19.0998 N   0  0  0  0  0  0  0  0  0  0  0  0
   16.2746   -8.0615   19.2218 H   0  0  0  0  0  0  0  0  0  0  0  0
   14.7201   -7.1948   20.2809 C   0  0  0  0  0  0  0  0  0  0  0  0
   15.3022   -7.4523   21.5273 C   0  0  0  0  0  0  0  0  0  0  0  0
   14.6920   -6.9987   22.7012 C   0  0  0  0  0  0  0  0  0  0  0  0
   15.3125   -7.2843   24.0198 C   0  0  0  0  0  0  0  0  0  0  0  0
   13.4923   -6.2853   22.6344 C   0  0  0  0  0  0  0  0  0  0  0  0
   12.9043   -6.0231   21.3944 C   0  0  0  0  0  0  0  0  0  0  0  0
   11.6287   -5.2638   21.3223 C   0  0  0  0  0  0  0  0  0  0  0  0
   13.5156   -6.4763   20.2220 C   0  0  0  0  0  0  0  0  0  0  0  0
  1  2  1  0  0  0
  2  3  1  0  0  0
  3  7  1  0  0  0
  3  4  2  0  0  0
  7  8  1  0  0  0
  8  9  2  0  0  0
  9 10  1  0  0  0
  9 11  1  0  0  0
 11 12  2  0  0  0
 12 13  1  0  0  0
 13 14  1  0  0  0
 13 19  1  0  0  0
 14 15  2  0  0  0
 15 16  1  0  0  0
 16 17  2  0  0  0
 17 18  1  0  0  0
 17 12  1  0  0  0
 19 20  2  0  0  0
 19  8  1  0  0  0
  4  5  1  0  0  0
  5  6  2  0  0  0
  6 21  1  0  0  0
  6  2  1  0  0  0
 21 22  1  0  0  0
 22 23  1  0  0  0
 23 24  2  0  0  0
 23 25  1  0  0  0
 25 27  1  0  0  0
 27 28  2  0  0  0
 28 29  1  0  0  0
 29 30  1  0  0  0
 29 31  2  0  0  0
 31 32  1  0  0  0
 32 33  1  0  0  0
 32 34  2  0  0  0
 34 27  1  0  0  0
 25 26  1  0  0  0
M  END
>  <minimizedAffinity>
-5.12583

>  <minimizedRMSD>
1.92858

$$$$
ChemDiv-C679-4387 MCULE-5660309621 MolPort-007-655-865 PubChem-20874259


 33 36  0  0  0  0  0  0  0  0999 V2000
   17.4271  -10.2259   15.0016 C   0  0  0  0  0  0  0  0  0  0  0  0
   18.0344  -11.3899   15.4983 C   0  0  0  0  0  0  0  0  0  0  0  0
   18.0147  -11.6634   16.8680 C   0  0  0  0  0  0  0  0  0  0  0  0
   17.3893  -10.7767   17.7483 C   0  0  0  0  0  0  0  0  0  0  0  0
   16.7804   -9.6129   17.2675 C   0  0  0  0  0  0  0  0  0  0  0  0
   16.8034   -9.3447   15.8903 C   0  0  0  0  0  0  0  0  0  0  0  0
   16.1466   -8.7296   18.2024 N   0  0  0  0  0  0  0  0  0  0  0  0
   15.0781   -7.8117   17.9278 C   0  0  0  0  0  0  0  0  0  0  0  0
   14.6055   -7.6903   16.7667 O   0  0  0  0  0  0  0  0  0  0  0  0
   16.4788   -8.7555   19.1288 H   0  0  0  0  0  0  0  0  0  0  0  0
   14.5232   -6.9716   19.0273 C   0  0  0  0  0  0  0  0  0  0  0  0
   15.2467   -7.2608   20.3280 C   0  0  0  0  0  0  0  0  0  0  0  0
   13.1327   -7.2272   19.1832 O   0  0  0  0  0  0  0  0  0  0  0  0
   12.3094   -6.4533   20.0059 C   0  0  0  0  0  0  0  0  0  0  0  0
   11.0974   -5.9764   19.4950 C   0  0  0  0  0  0  0  0  0  0  0  0
   10.2522   -5.1989   20.2926 C   0  0  0  0  0  0  0  0  0  0  0  0
   10.6160   -4.8940   21.6074 C   0  0  0  0  0  0  0  0  0  0  0  0
   11.8253   -5.3664   22.1252 C   0  0  0  0  0  0  0  0  0  0  0  0
   12.6704   -6.1438   21.3279 C   0  0  0  0  0  0  0  0  0  0  0  0
   17.4286   -9.9227   13.6378 O   0  0  0  0  0  0  0  0  0  0  0  0
   18.0477  -10.7564   12.6669 C   0  0  0  0  0  0  0  0  0  0  0  0
   17.5927   -8.9907    8.8649 N   0  0  0  0  0  0  0  0  0  0  0  0
   17.5954   -8.3702    7.6875 N   0  0  0  0  0  0  0  0  0  0  0  0
   18.7782   -7.7574    7.4389 C   0  0  0  0  0  0  0  0  0  0  0  0
   19.8809   -7.9552    8.7142 S   0  0  0  0  0  0  0  0  0  0  0  0
   18.7483   -8.8701    9.5518 C   0  0  0  0  0  0  0  0  0  0  0  0
   18.9145   -9.4358   10.7723 N   0  0  0  0  0  0  0  0  0  0  0  0
   17.8908  -10.1519   11.3177 C   0  0  0  0  0  0  0  0  0  0  0  0
   16.6735  -10.2868   10.6298 C   0  0  0  0  0  0  0  0  0  0  0  0
   16.5414   -9.6865    9.3729 C   0  0  0  0  0  0  0  0  0  0  0  0
   15.4638   -9.7916    8.7293 O   0  0  0  0  0  0  0  0  0  0  0  0
   19.0413   -6.9545    6.2144 C   0  0  0  0  0  0  0  0  0  0  0  0
   18.8236   -5.4835    6.5065 C   0  0  0  0  0  0  0  0  0  0  0  0
 22 23  1  0  0  0
 23 24  2  0  0  0
 24 25  1  0  0  0
 25 26  1  0  0  0
 26 27  2  0  0  0
 27 28  1  0  0  0
 28 21  1  0  0  0
 21 20  1  0  0  0
 20  1  1  0  0  0
  1  2  2  0  0  0
  2  3  1  0  0  0
  3  4  2  0  0  0
  4  5  1  0  0  0
  5  6  2  0  0  0
  5  7  1  0  0  0
  7  8  1  0  0  0
  8  9  2  0  0  0
  8 11  1  0  0  0
 11 12  1  0  0  0
 11 13  1  0  0  0
 13 14  1  0  0  0
 14 15  2  0  0  0
 15 16  1  0  0  0
 16 17  2  0  0  0
 17 18  1  0  0  0
 18 19  2  0  0  0
 28 29  2  0  0  0
 29 30  1  0  0  0
 30 31  2  0  0  0
 24 32  1  0  0  0
 32 33  1  0  0  0
 26 22  1  0  0  0
  6  1  1  0  0  0
 19 14  1  0  0  0
 30 22  1  0  0  0
  7 10  1  0  0  0
M  END
>  <minimizedAffinity>
-5.09715

>  <minimizedRMSD>
1.39199

$$$$
ChemDiv-D483-1449 MCULE-6310307578 MolPort-007-710-926 PubChem-20899056 ZINC000015859218


 30 32  0  0  0  0  0  0  0  0999 V2000
   16.2261   -9.5737   13.2254 C   0  0  0  0  0  0  0  0  0  0  0  0
   15.7434   -8.3229   13.0847 N   0  0  0  0  0  0  0  0  0  0  0  0
   15.6589   -7.8021   14.3018 N   0  0  0  0  0  0  0  0  0  0  0  0
   16.0895   -8.7455   15.1612 C   0  0  0  0  0  0  0  0  0  0  0  0
   16.4539   -9.8664   14.5170 N   0  0  0  0  0  0  0  0  0  0  0  0
   16.9516  -11.1086   15.0864 C   0  0  0  0  0  0  0  0  0  0  0  0
   16.4752  -10.5065   12.0833 C   0  0  0  0  0  0  0  0  0  0  0  0
   17.5033   -8.9969    8.7734 N   0  0  0  0  0  0  0  0  0  0  0  0
   16.9807   -8.7979    7.5259 C   0  0  0  0  0  0  0  0  0  0  0  0
   17.7214   -8.1541    6.5332 C   0  0  0  0  0  0  0  0  0  0  0  0
   19.0098   -7.7108    6.8234 C   0  0  0  0  0  0  0  0  0  0  0  0
   19.5427   -7.9138    8.0946 C   0  0  0  0  0  0  0  0  0  0  0  0
   18.7755   -8.5612    9.0662 C   0  0  0  0  0  0  0  0  0  0  0  0
   19.2985   -8.7563   10.3023 N   0  0  0  0  0  0  0  0  0  0  0  0
   18.5930   -9.3777   11.2792 C   0  0  0  0  0  0  0  0  0  0  0  0
   19.2301   -9.5642   12.6144 C   0  0  0  0  0  0  0  0  0  0  0  0
   17.2934   -9.8358   11.0164 C   0  0  0  0  0  0  0  0  0  0  0  0
   16.7597   -9.6302    9.7333 C   0  0  0  0  0  0  0  0  0  0  0  0
   15.5907  -10.0343    9.4723 O   0  0  0  0  0  0  0  0  0  0  0  0
   19.8139   -7.0236    5.7798 C   0  0  0  0  0  0  0  0  0  0  0  0
   16.1596   -8.5170   16.9380 S   0  0  0  0  0  0  0  0  0  0  0  0
   14.4547   -7.8848   17.0296 C   0  0  0  0  0  0  0  0  0  0  0  0
   14.1862   -7.2882   18.3681 C   0  0  0  0  0  0  0  0  0  0  0  0
   13.2932   -6.4073   18.4845 O   0  0  0  0  0  0  0  0  0  0  0  0
   14.9391   -7.7245   19.5068 N   0  0  0  0  0  0  0  0  0  0  0  0
   15.6080   -8.4331   19.3663 H   0  0  0  0  0  0  0  0  0  0  0  0
   14.7881   -7.1964   20.8602 C   0  0  0  0  0  0  0  0  0  0  0  0
   14.1108   -8.2183   21.7553 C   0  0  0  0  0  0  0  0  0  0  0  0
   13.9760   -5.9140   20.8397 C   0  0  0  0  0  0  0  0  0  0  0  0
   16.1599   -6.8923   21.4233 C   0  0  0  0  0  0  0  0  0  0  0  0
  8  9  1  0  0  0
  9 10  2  0  0  0
 10 11  1  0  0  0
 11 12  2  0  0  0
 12 13  1  0  0  0
 13 14  2  0  0  0
 14 15  1  0  0  0
 15 16  1  0  0  0
 15 17  2  0  0  0
 17  7  1  0  0  0
  7  1  1  0  0  0
  1  2  2  0  0  0
  2  3  1  0  0  0
  3  4  2  0  0  0
  4 21  1  0  0  0
 21 22  1  0  0  0
 22 23  1  0  0  0
 23 24  2  0  0  0
 23 25  1  0  0  0
 25 27  1  0  0  0
 27 28  1  0  0  0
 27 29  1  0  0  0
 27 30  1  0  0  0
  4  5  1  0  0  0
  5  6  1  0  0  0
 17 18  1  0  0  0
 18 19  2  0  0  0
 11 20  1  0  0  0
 13  8  1  0  0  0
  5  1  1  0  0  0
 18  8  1  0  0  0
 25 26  1  0  0  0
M  END
>  <minimizedAffinity>
-5.08537

>  <minimizedRMSD>
2.63143

$$$$
ChemDiv-G357-1247 CHEMBL1591957 MCULE-8547534861 MolPort-007-847-458 PubChem-16027414 ZINC000008606970 ZINC08606970


 33 37  0  0  0  0  0  0  0  0999 V2000
   17.8926  -10.3892   14.1683 C   0  0  0  0  0  0  0  0  0  0  0  0
   18.6777  -11.3476   14.4098 O   0  0  0  0  0  0  0  0  0  0  0  0
   15.8675   -8.4007   17.3794 C   0  0  0  0  0  0  0  0  0  0  0  0
   15.6124   -8.0424   16.0475 C   0  0  0  0  0  0  0  0  0  0  0  0
   16.2736   -8.6920   15.0016 C   0  0  0  0  0  0  0  0  0  0  0  0
   17.1987   -9.7081   15.2730 C   0  0  0  0  0  0  0  0  0  0  0  0
   17.4535  -10.0660   16.6042 C   0  0  0  0  0  0  0  0  0  0  0  0
   16.7912   -9.4154   17.6492 C   0  0  0  0  0  0  0  0  0  0  0  0
   13.2584   -7.0465   17.3898 O   0  0  0  0  0  0  0  0  0  0  0  0
   13.9313   -7.1024   18.4551 C   0  0  0  0  0  0  0  0  0  0  0  0
   15.2089   -7.7575   18.4790 N   0  0  0  0  0  0  0  0  0  0  0  0
   15.6830   -7.7660   19.3418 H   0  0  0  0  0  0  0  0  0  0  0  0
   13.4018   -6.4899   19.6864 C   0  0  0  0  0  0  0  0  0  0  0  0
   14.1322   -6.5568   20.8821 C   0  0  0  0  0  0  0  0  0  0  0  0
   13.6308   -5.9762   22.0508 C   0  0  0  0  0  0  0  0  0  0  0  0
   12.3951   -5.3239   22.0324 C   0  0  0  0  0  0  0  0  0  0  0  0
   11.6605   -5.2523   20.8458 C   0  0  0  0  0  0  0  0  0  0  0  0
   12.1619   -5.8331   19.6771 C   0  0  0  0  0  0  0  0  0  0  0  0
   17.6778   -9.9697   12.8535 O   0  0  0  0  0  0  0  0  0  0  0  0
   17.8881  -10.8326   11.7456 C   0  0  0  0  0  0  0  0  0  0  0  0
   17.7964  -10.0527   10.4832 C   0  0  0  0  0  0  0  0  0  0  0  0
   16.5404   -9.8095    9.9029 C   0  0  0  0  0  0  0  0  0  0  0  0
   16.4774   -9.0482    8.7306 C   0  0  0  0  0  0  0  0  0  0  0  0
   15.3668   -8.8144    8.1842 O   0  0  0  0  0  0  0  0  0  0  0  0
   17.6320   -8.5674    8.1984 N   0  0  0  0  0  0  0  0  0  0  0  0
   17.7092   -7.8269    7.0952 N   0  0  0  0  0  0  0  0  0  0  0  0
   18.9880   -7.4889    6.7944 C   0  0  0  0  0  0  0  0  0  0  0  0
   20.0886   -8.0951    7.9390 S   0  0  0  0  0  0  0  0  0  0  0  0
   18.8244   -8.8098    8.7820 C   0  0  0  0  0  0  0  0  0  0  0  0
   18.9267   -9.5408    9.9187 N   0  0  0  0  0  0  0  0  0  0  0  0
   19.3594   -6.6158    5.6412 C   0  0  0  0  0  0  0  0  0  0  0  0
   19.8395   -7.4674    4.4803 C   0  0  0  0  0  0  0  0  0  0  0  0
   20.8433   -6.7491    5.3530 C   0  0  0  0  0  0  0  0  0  0  0  0
  9 10  2  0  0  0
 10 11  1  0  0  0
 10 13  1  0  0  0
 11  3  1  0  0  0
  3  4  2  0  0  0
  4  5  1  0  0  0
  5  6  2  0  0  0
  6  7  1  0  0  0
  6  1  1  0  0  0
  7  8  2  0  0  0
  8  3  1  0  0  0
  1  2  2  0  0  0
  1 19  1  0  0  0
 19 20  1  0  0  0
 20 21  1  0  0  0
 21 22  2  0  0  0
 22 23  1  0  0  0
 23 24  2  0  0  0
 23 25  1  0  0  0
 25 26  1  0  0  0
 26 27  2  0  0  0
 27 28  1  0  0  0
 27 31  1  0  0  0
 28 29  1  0  0  0
 29 30  2  0  0  0
 29 25  1  0  0  0
 30 21  1  0  0  0
 31 32  1  0  0  0
 32 33  1  0  0  0
 33 31  1  0  0  0
 13 14  2  0  0  0
 14 15  1  0  0  0
 15 16  2  0  0  0
 16 17  1  0  0  0
 17 18  2  0  0  0
 18 13  1  0  0  0
 11 12  1  0  0  0
M  END
>  <minimizedAffinity>
-5.07314

>  <minimizedRMSD>
1.30045

$$$$
ChemDiv-G357-0017 CHEMBL1585830 MCULE-1466015437 MolPort-007-847-006 PubChem-20952933 ZINC000015942603


 29 31  0  0  0  0  0  0  0  0999 V2000
   17.5544  -10.0476   15.1500 C   0  0  0  0  0  0  0  0  0  0  0  0
   18.4364  -10.8613   15.5419 O   0  0  0  0  0  0  0  0  0  0  0  0
   16.7742   -9.2769   16.1314 C   0  0  0  0  0  0  0  0  0  0  0  0
   15.8262   -8.3416   15.6970 C   0  0  0  0  0  0  0  0  0  0  0  0
   15.0832   -7.6072   16.6251 C   0  0  0  0  0  0  0  0  0  0  0  0
   15.2790   -7.7979   18.0009 C   0  0  0  0  0  0  0  0  0  0  0  0
   16.2243   -8.7333   18.4336 C   0  0  0  0  0  0  0  0  0  0  0  0
   16.9683   -9.4685   17.5064 C   0  0  0  0  0  0  0  0  0  0  0  0
   14.5332   -7.0662   18.9832 N   0  0  0  0  0  0  0  0  0  0  0  0
   13.1608   -6.6507   18.8910 C   0  0  0  0  0  0  0  0  0  0  0  0
   12.5004   -6.8586   17.8358 O   0  0  0  0  0  0  0  0  0  0  0  0
   15.0122   -6.8229   19.8082 H   0  0  0  0  0  0  0  0  0  0  0  0
   12.5391   -5.8868   20.0314 C   0  0  0  0  0  0  0  0  0  0  0  0
   11.6596   -4.7550   19.5254 C   0  0  0  0  0  0  0  0  0  0  0  0
   13.6363   -5.3015   20.8979 C   0  0  0  0  0  0  0  0  0  0  0  0
   11.6807   -6.8070   20.8809 C   0  0  0  0  0  0  0  0  0  0  0  0
   17.3136   -9.8741   13.7852 O   0  0  0  0  0  0  0  0  0  0  0  0
   17.8330  -10.7671   12.8110 C   0  0  0  0  0  0  0  0  0  0  0  0
   17.4932   -8.9705    9.0117 N   0  0  0  0  0  0  0  0  0  0  0  0
   17.5309   -8.3393    7.8405 N   0  0  0  0  0  0  0  0  0  0  0  0
   18.7064   -7.6937    7.6501 C   0  0  0  0  0  0  0  0  0  0  0  0
   19.7645   -7.8885    8.9620 S   0  0  0  0  0  0  0  0  0  0  0  0
   18.6175   -8.8331    9.7458 C   0  0  0  0  0  0  0  0  0  0  0  0
   18.7472   -9.4093   10.9657 N   0  0  0  0  0  0  0  0  0  0  0  0
   17.7182  -10.1530   11.4620 C   0  0  0  0  0  0  0  0  0  0  0  0
   16.5327  -10.3061   10.7242 C   0  0  0  0  0  0  0  0  0  0  0  0
   16.4381   -9.6950    9.4691 C   0  0  0  0  0  0  0  0  0  0  0  0
   15.3899   -9.8163    8.7812 O   0  0  0  0  0  0  0  0  0  0  0  0
   19.0176   -6.9084    6.4276 C   0  0  0  0  0  0  0  0  0  0  0  0
 19 20  1  0  0  0
 20 21  2  0  0  0
 21 22  1  0  0  0
 22 23  1  0  0  0
 23 24  2  0  0  0
 24 25  1  0  0  0
 25 18  1  0  0  0
 18 17  1  0  0  0
 17  1  1  0  0  0
  1  2  2  0  0  0
  1  3  1  0  0  0
  3  4  2  0  0  0
  4  5  1  0  0  0
  5  6  2  0  0  0
  6  7  1  0  0  0
  7  8  2  0  0  0
  6  9  1  0  0  0
  9 10  1  0  0  0
 10 11  2  0  0  0
 10 13  1  0  0  0
 13 14  1  0  0  0
 13 15  1  0  0  0
 13 16  1  0  0  0
 25 26  2  0  0  0
 26 27  1  0  0  0
 27 28  2  0  0  0
 21 29  1  0  0  0
 23 19  1  0  0  0
  8  3  1  0  0  0
 27 19  1  0  0  0
  9 12  1  0  0  0
M  END
>  <minimizedAffinity>
-5.05733

>  <minimizedRMSD>
2.02378

$$$$
ChemDiv-D483-1643 MCULE-3676194175 MolPort-007-710-977 PubChem-46269973 ZINC000015859271


 34 37  0  0  0  0  0  0  0  0999 V2000
   16.4987   -9.8273   13.2769 C   0  0  0  0  0  0  0  0  0  0  0  0
   15.9291   -8.6208   13.0854 N   0  0  0  0  0  0  0  0  0  0  0  0
   15.8185   -8.0515   14.2786 N   0  0  0  0  0  0  0  0  0  0  0  0
   16.3257   -8.9202   15.1740 C   0  0  0  0  0  0  0  0  0  0  0  0
   16.7604  -10.0424   14.5773 N   0  0  0  0  0  0  0  0  0  0  0  0
   17.3631  -11.2129   15.1951 C   0  0  0  0  0  0  0  0  0  0  0  0
   16.8288  -10.7786   12.1718 C   0  0  0  0  0  0  0  0  0  0  0  0
   18.5604   -8.7039    9.5256 N   0  0  0  0  0  0  0  0  0  0  0  0
   19.7665   -8.0918    9.3281 C   0  0  0  0  0  0  0  0  0  0  0  0
   20.0244   -7.3732    8.1613 C   0  0  0  0  0  0  0  0  0  0  0  0
   19.0362   -7.2802    7.1857 C   0  0  0  0  0  0  0  0  0  0  0  0
   17.8044   -7.9016    7.3805 C   0  0  0  0  0  0  0  0  0  0  0  0
   16.7606   -7.7884    6.3216 C   0  0  0  0  0  0  0  0  0  0  0  0
   17.5746   -8.6189    8.5673 C   0  0  0  0  0  0  0  0  0  0  0  0
   16.3773   -9.2295    8.7693 N   0  0  0  0  0  0  0  0  0  0  0  0
   16.1167   -9.9282    9.9007 C   0  0  0  0  0  0  0  0  0  0  0  0
   14.7812  -10.5752   10.0528 C   0  0  0  0  0  0  0  0  0  0  0  0
   17.0989  -10.0338   10.8953 C   0  0  0  0  0  0  0  0  0  0  0  0
   18.3349   -9.4023   10.6822 C   0  0  0  0  0  0  0  0  0  0  0  0
   19.2369   -9.4857   11.5636 O   0  0  0  0  0  0  0  0  0  0  0  0
   16.4050   -8.6025   16.9340 S   0  0  0  0  0  0  0  0  0  0  0  0
   14.7430   -7.8554   16.9461 C   0  0  0  0  0  0  0  0  0  0  0  0
   14.2840   -7.4725   18.3187 C   0  0  0  0  0  0  0  0  0  0  0  0
   13.0853   -7.1191   18.4717 O   0  0  0  0  0  0  0  0  0  0  0  0
   15.1882   -7.5054   19.4342 N   0  0  0  0  0  0  0  0  0  0  0  0
   16.1124   -7.7862   19.2439 H   0  0  0  0  0  0  0  0  0  0  0  0
   14.8863   -7.1725   20.7960 C   0  0  0  0  0  0  0  0  0  0  0  0
   15.2426   -8.0748   21.8045 C   0  0  0  0  0  0  0  0  0  0  0  0
   14.9645   -7.7856   23.1439 C   0  0  0  0  0  0  0  0  0  0  0  0
   14.3268   -6.5892   23.4827 C   0  0  0  0  0  0  0  0  0  0  0  0
   13.9667   -5.6825   22.4822 C   0  0  0  0  0  0  0  0  0  0  0  0
   14.2453   -5.9732   21.1435 C   0  0  0  0  0  0  0  0  0  0  0  0
   13.3111   -4.4534   22.8282 C   0  0  0  0  0  0  0  0  0  0  0  0
   12.7823   -3.4624   23.1068 N   0  0  0  0  0  0  0  0  0  0  0  0
  8  9  1  0  0  0
  9 10  2  0  0  0
 10 11  1  0  0  0
 11 12  2  0  0  0
 12 13  1  0  0  0
 12 14  1  0  0  0
 14 15  2  0  0  0
 15 16  1  0  0  0
 16 17  1  0  0  0
 16 18  2  0  0  0
 18  7  1  0  0  0
  7  1  1  0  0  0
  1  2  2  0  0  0
  2  3  1  0  0  0
  3  4  2  0  0  0
  4 21  1  0  0  0
 21 22  1  0  0  0
 22 23  1  0  0  0
 23 24  2  0  0  0
 23 25  1  0  0  0
 25 27  1  0  0  0
 27 28  2  0  0  0
 28 29  1  0  0  0
 29 30  2  0  0  0
 30 31  1  0  0  0
 31 32  2  0  0  0
 31 33  1  0  0  0
 33 34  3  0  0  0
  4  5  1  0  0  0
  5  6  1  0  0  0
 18 19  1  0  0  0
 19 20  2  0  0  0
 14  8  1  0  0  0
  5  1  1  0  0  0
 19  8  1  0  0  0
 32 27  1  0  0  0
 25 26  1  0  0  0
M  END
>  <minimizedAffinity>
-5.01271

>  <minimizedRMSD>
2.27130

$$$$
ChemDiv-C720-0546 CHEMBL1354783 MCULE-5686263108 MolPort-007-662-239 ZINC000008604709


 32 34  0  0  0  0  0  0  0  0999 V2000
   16.9518  -10.3915   13.1595 C   0  0  0  0  0  0  0  0  0  0  0  0
   16.1311   -9.6468   14.0653 N   0  0  0  0  0  0  0  0  0  0  0  0
   17.4810  -11.4690   13.5474 O   0  0  0  0  0  0  0  0  0  0  0  0
   15.6851   -8.8337   13.7351 H   0  0  0  0  0  0  0  0  0  0  0  0
   18.6156   -8.8500   10.1306 N   0  0  0  0  0  0  0  0  0  0  0  0
   19.8107   -8.2788    9.7915 C   0  0  0  0  0  0  0  0  0  0  0  0
   20.0410   -7.8056    8.5001 C   0  0  0  0  0  0  0  0  0  0  0  0
   19.0356   -7.9177    7.5446 C   0  0  0  0  0  0  0  0  0  0  0  0
   17.8153   -8.4981    7.8832 C   0  0  0  0  0  0  0  0  0  0  0  0
   16.7524   -8.6078    6.8430 C   0  0  0  0  0  0  0  0  0  0  0  0
   17.6146   -8.9656    9.1937 C   0  0  0  0  0  0  0  0  0  0  0  0
   16.4309   -9.5343    9.5351 N   0  0  0  0  0  0  0  0  0  0  0  0
   16.1955   -9.9986   10.7853 C   0  0  0  0  0  0  0  0  0  0  0  0
   17.1899   -9.8959   11.7752 C   0  0  0  0  0  0  0  0  0  0  0  0
   18.4190   -9.3026   11.4088 C   0  0  0  0  0  0  0  0  0  0  0  0
   19.3369   -9.1759   12.2688 O   0  0  0  0  0  0  0  0  0  0  0  0
   14.9663  -10.5887   11.0557 O   0  0  0  0  0  0  0  0  0  0  0  0
   14.3168  -10.6477   10.3829 H   0  0  0  0  0  0  0  0  0  0  0  0
   15.9256  -10.0375   15.4542 C   0  0  0  0  0  0  0  0  0  0  0  0
   16.6360   -9.0712   16.3954 C   0  0  0  0  0  0  0  0  0  0  0  0
   15.6716   -8.3969   17.3142 C   0  0  0  0  0  0  0  0  0  0  0  0
   15.9682   -8.2493   18.6750 C   0  0  0  0  0  0  0  0  0  0  0  0
   15.0591   -7.6122   19.5244 C   0  0  0  0  0  0  0  0  0  0  0  0
   13.8512   -7.1198   19.0173 C   0  0  0  0  0  0  0  0  0  0  0  0
   13.5603   -7.2586   17.6556 C   0  0  0  0  0  0  0  0  0  0  0  0
   14.4691   -7.8954   16.8057 C   0  0  0  0  0  0  0  0  0  0  0  0
   12.7129   -6.3116   20.0794 S   0  0  0  0  0  0  0  0  0  0  0  0
   13.5477   -5.1419   21.0375 N   0  0  0  0  0  0  0  0  0  0  0  0
   12.0556   -7.3191   20.9807 O   0  0  0  0  0  0  0  0  0  0  0  0
   11.6545   -5.6286   19.2597 O   0  0  0  0  0  0  0  0  0  0  0  0
   14.2655   -5.6071   21.5930 H   0  0  0  0  0  0  0  0  0  0  0  0
   12.8859   -4.6762   21.6584 H   0  0  0  0  0  0  0  0  0  0  0  0
  5  6  1  0  0  0
  6  7  2  0  0  0
  7  8  1  0  0  0
  8  9  2  0  0  0
  9 10  1  0  0  0
  9 11  1  0  0  0
 11 12  2  0  0  0
 12 13  1  0  0  0
 13 14  2  0  0  0
 14  1  1  0  0  0
  1  2  1  0  0  0
  2 19  1  0  0  0
 19 20  1  0  0  0
 20 21  1  0  0  0
 21 22  2  0  0  0
 22 23  1  0  0  0
 23 24  2  0  0  0
 24 25  1  0  0  0
 25 26  2  0  0  0
 24 27  1  0  0  0
 27 28  1  0  0  0
 27 29  2  0  0  0
 27 30  2  0  0  0
  1  3  2  0  0  0
 14 15  1  0  0  0
 15 16  2  0  0  0
 13 17  1  0  0  0
 11  5  1  0  0  0
 26 21  1  0  0  0
 15  5  1  0  0  0
  2  4  1  0  0  0
 28 31  1  0  0  0
 28 32  1  0  0  0
 17 18  1  0  0  0
M  END
>  <minimizedAffinity>
-5.01242

>  <minimizedRMSD>
3.52785

$$$$
ChemDiv-G357-0764 MCULE-9764871830 MolPort-007-847-321 PubChem-20953042 ZINC000015771779


 32 34  0  0  0  0  0  0  0  0999 V2000
   15.9304   -9.0331   14.7846 O   0  0  0  0  0  0  0  0  0  0  0  0
   16.5633   -8.7851   16.0046 C   0  0  0  0  0  0  0  0  0  0  0  0
   17.7876   -9.0548   16.1524 O   0  0  0  0  0  0  0  0  0  0  0  0
   15.7960   -8.2071   17.1194 C   0  0  0  0  0  0  0  0  0  0  0  0
   16.3641   -8.0987   18.3963 C   0  0  0  0  0  0  0  0  0  0  0  0
   15.6301   -7.5488   19.4512 C   0  0  0  0  0  0  0  0  0  0  0  0
   14.3212   -7.1014   19.2457 C   0  0  0  0  0  0  0  0  0  0  0  0
   13.7529   -7.2082   17.9677 C   0  0  0  0  0  0  0  0  0  0  0  0
   14.4855   -7.7578   16.9121 C   0  0  0  0  0  0  0  0  0  0  0  0
   13.6025   -6.5404   20.3527 N   0  0  0  0  0  0  0  0  0  0  0  0
   12.9930   -5.2408   20.4160 C   0  0  0  0  0  0  0  0  0  0  0  0
   12.9976   -4.4835   19.4064 O   0  0  0  0  0  0  0  0  0  0  0  0
   13.5176   -7.1057   21.1542 H   0  0  0  0  0  0  0  0  0  0  0  0
   12.2713   -4.8200   21.6700 C   0  0  0  0  0  0  0  0  0  0  0  0
   11.3962   -5.9607   22.1495 C   0  0  0  0  0  0  0  0  0  0  0  0
   11.3954   -3.6027   21.4219 C   0  0  0  0  0  0  0  0  0  0  0  0
   13.2650   -4.4703   22.7634 C   0  0  0  0  0  0  0  0  0  0  0  0
   15.9997  -10.2995   14.1459 C   0  0  0  0  0  0  0  0  0  0  0  0
   16.1333   -9.7031    9.9739 N   0  0  0  0  0  0  0  0  0  0  0  0
   16.3300   -9.4751    8.6777 N   0  0  0  0  0  0  0  0  0  0  0  0
   17.6255   -9.1872    8.4027 C   0  0  0  0  0  0  0  0  0  0  0  0
   18.5915   -9.1981    9.7987 S   0  0  0  0  0  0  0  0  0  0  0  0
   17.2490   -9.5960   10.7259 C   0  0  0  0  0  0  0  0  0  0  0  0
   17.2264   -9.7911   12.0669 N   0  0  0  0  0  0  0  0  0  0  0  0
   16.0475  -10.1111   12.6719 C   0  0  0  0  0  0  0  0  0  0  0  0
   14.8685  -10.2204   11.9161 C   0  0  0  0  0  0  0  0  0  0  0  0
   14.9337  -10.0105   10.5342 C   0  0  0  0  0  0  0  0  0  0  0  0
   13.8950  -10.1041    9.8279 O   0  0  0  0  0  0  0  0  0  0  0  0
   18.1232   -8.8628    7.0292 C   0  0  0  0  0  0  0  0  0  0  0  0
   19.1518   -7.7304    7.0098 C   0  0  0  0  0  0  0  0  0  0  0  0
   19.8177   -7.5915    5.6525 C   0  0  0  0  0  0  0  0  0  0  0  0
   18.5487   -6.4071    7.4457 C   0  0  0  0  0  0  0  0  0  0  0  0
 19 20  1  0  0  0
 20 21  2  0  0  0
 21 22  1  0  0  0
 22 23  1  0  0  0
 23 24  2  0  0  0
 24 25  1  0  0  0
 25 18  1  0  0  0
 18  1  1  0  0  0
  1  2  1  0  0  0
  2  3  2  0  0  0
  2  4  1  0  0  0
  4  5  2  0  0  0
  5  6  1  0  0  0
  6  7  2  0  0  0
  7  8  1  0  0  0
  8  9  2  0  0  0
  7 10  1  0  0  0
 10 11  1  0  0  0
 11 12  2  0  0  0
 11 14  1  0  0  0
 14 15  1  0  0  0
 14 16  1  0  0  0
 14 17  1  0  0  0
 25 26  2  0  0  0
 26 27  1  0  0  0
 27 28  2  0  0  0
 21 29  1  0  0  0
 29 30  1  0  0  0
 30 31  1  0  0  0
 30 32  1  0  0  0
 23 19  1  0  0  0
  9  4  1  0  0  0
 27 19  1  0  0  0
 10 13  1  0  0  0
M  END
>  <minimizedAffinity>
-5.00301

>  <minimizedRMSD>
3.58862

$$$$
ChemDiv-G357-3046 MCULE-7923864476 MolPort-007-847-916 PubChem-46343597 ZINC000015772208 ZINC15772208


 32 35  0  0  0  0  0  0  0  0999 V2000
   17.6264  -10.2946   14.9821 C   0  0  0  0  0  0  0  0  0  0  0  0
   16.7229   -9.2404   14.7967 C   0  0  0  0  0  0  0  0  0  0  0  0
   16.1442   -8.6053   15.8989 C   0  0  0  0  0  0  0  0  0  0  0  0
   16.4617   -9.0162   17.2019 C   0  0  0  0  0  0  0  0  0  0  0  0
   17.3638  -10.0689   17.3858 C   0  0  0  0  0  0  0  0  0  0  0  0
   17.9434  -10.7051   16.2844 C   0  0  0  0  0  0  0  0  0  0  0  0
   15.8886   -8.3895   18.3574 N   0  0  0  0  0  0  0  0  0  0  0  0
   14.6931   -7.5953   18.4036 C   0  0  0  0  0  0  0  0  0  0  0  0
   14.0226   -7.3828   17.3568 O   0  0  0  0  0  0  0  0  0  0  0  0
   16.3654   -8.5172   19.2093 H   0  0  0  0  0  0  0  0  0  0  0  0
   14.2459   -7.0233   19.6860 C   0  0  0  0  0  0  0  0  0  0  0  0
   12.9984   -6.3888   19.7842 C   0  0  0  0  0  0  0  0  0  0  0  0
   12.5749   -5.8467   21.0010 C   0  0  0  0  0  0  0  0  0  0  0  0
   11.0168   -5.0576   21.1118 Cl  0  0  0  0  0  0  0  0  0  0  0  0
   13.3954   -5.9345   22.1288 C   0  0  0  0  0  0  0  0  0  0  0  0
   14.6394   -6.5647   22.0400 C   0  0  0  0  0  0  0  0  0  0  0  0
   15.0629   -7.1070   20.8230 C   0  0  0  0  0  0  0  0  0  0  0  0
   18.2330  -10.9602   13.8182 C   0  0  0  0  0  0  0  0  0  0  0  0
   18.9073  -12.0160   13.9738 O   0  0  0  0  0  0  0  0  0  0  0  0
   18.0589  -10.4182   12.5428 O   0  0  0  0  0  0  0  0  0  0  0  0
   18.6873  -10.9747   11.3976 C   0  0  0  0  0  0  0  0  0  0  0  0
   18.9194   -5.8597    6.1891 C   0  0  0  0  0  0  0  0  0  0  0  0
   18.6766   -6.9720    7.1446 C   0  0  0  0  0  0  0  0  0  0  0  0
   19.5116   -7.3073    8.2160 C   0  0  0  0  0  0  0  0  0  0  0  0
   18.8272   -8.3820    8.7509 C   0  0  0  0  0  0  0  0  0  0  0  0
   19.1671   -9.1285    9.8302 N   0  0  0  0  0  0  0  0  0  0  0  0
   18.3507  -10.1604   10.2002 C   0  0  0  0  0  0  0  0  0  0  0  0
   17.1686  -10.4320    9.4809 C   0  0  0  0  0  0  0  0  0  0  0  0
   16.8602   -9.6325    8.3734 C   0  0  0  0  0  0  0  0  0  0  0  0
   15.8184   -9.8372    7.6970 O   0  0  0  0  0  0  0  0  0  0  0  0
   17.7151   -8.6317    8.0540 N   0  0  0  0  0  0  0  0  0  0  0  0
   17.6329   -7.7759    7.0874 O   0  0  0  0  0  0  0  0  0  0  0  0
 22 23  1  0  0  0
 23 24  2  0  0  0
 24 25  1  0  0  0
 25 26  2  0  0  0
 26 27  1  0  0  0
 27 21  1  0  0  0
 27 28  2  0  0  0
 21 20  1  0  0  0
 20 18  1  0  0  0
 18 19  2  0  0  0
 18  1  1  0  0  0
  1  2  2  0  0  0
  2  3  1  0  0  0
  3  4  2  0  0  0
  4  7  1  0  0  0
  4  5  1  0  0  0
  7  8  1  0  0  0
  8  9  2  0  0  0
  8 11  1  0  0  0
 11 12  2  0  0  0
 12 13  1  0  0  0
 13 14  1  0  0  0
 13 15  2  0  0  0
 15 16  1  0  0  0
 16 17  2  0  0  0
 17 11  1  0  0  0
  5  6  2  0  0  0
  6  1  1  0  0  0
 28 29  1  0  0  0
 29 30  2  0  0  0
 29 31  1  0  0  0
 31 32  1  0  0  0
 31 25  1  0  0  0
 32 23  1  0  0  0
  7 10  1  0  0  0
M  END
>  <minimizedAffinity>
-4.98578

>  <minimizedRMSD>
0.82374

$$$$
ChemDiv-D549-2562 MCULE-4905166232 MolPort-010-800-892 PubChem-53046825


 34 38  0  0  0  0  0  0  0  0999 V2000
   16.3261   -9.5221   12.0088 C   0  0  0  0  0  0  0  0  0  0  0  0
   15.0093   -9.6740   12.2535 N   0  0  0  0  0  0  0  0  0  0  0  0
   14.8687   -9.8177   13.5634 N   0  0  0  0  0  0  0  0  0  0  0  0
   16.1032   -9.7623   14.0960 C   0  0  0  0  0  0  0  0  0  0  0  0
   17.0442   -9.5844   13.1506 N   0  0  0  0  0  0  0  0  0  0  0  0
   16.8720   -9.3606   10.6502 C   0  0  0  0  0  0  0  0  0  0  0  0
   17.9580   -8.5649   10.2594 C   0  0  0  0  0  0  0  0  0  0  0  0
   18.6779   -7.7094   11.1427 N   0  0  0  0  0  0  0  0  0  0  0  0
   18.1987   -8.6125    8.8834 C   0  0  0  0  0  0  0  0  0  0  0  0
   17.3104   -9.4276    8.2076 C   0  0  0  0  0  0  0  0  0  0  0  0
   17.3614   -9.6016    6.8639 N   0  0  0  0  0  0  0  0  0  0  0  0
   18.3228   -8.9550    6.1427 C   0  0  0  0  0  0  0  0  0  0  0  0
   19.2505   -8.1108    6.7833 C   0  0  0  0  0  0  0  0  0  0  0  0
   19.1885   -7.9327    8.1743 C   0  0  0  0  0  0  0  0  0  0  0  0
   16.2055  -10.0988    9.2760 S   0  0  0  0  0  0  0  0  0  0  0  0
   18.4726   -7.7109   12.1056 H   0  0  0  0  0  0  0  0  0  0  0  0
   19.3806   -7.1168   10.7902 H   0  0  0  0  0  0  0  0  0  0  0  0
   16.4317   -9.9204   15.8518 S   0  0  0  0  0  0  0  0  0  0  0  0
   16.0734   -8.1663   16.1792 C   0  0  0  0  0  0  0  0  0  0  0  0
   15.1331   -8.0270   17.3264 C   0  0  0  0  0  0  0  0  0  0  0  0
   13.8983   -7.9103   17.1058 O   0  0  0  0  0  0  0  0  0  0  0  0
   15.6371   -8.0212   18.6641 N   0  0  0  0  0  0  0  0  0  0  0  0
   16.6067   -8.1192   18.8043 H   0  0  0  0  0  0  0  0  0  0  0  0
   14.7744   -7.8761   19.8269 C   0  0  0  0  0  0  0  0  0  0  0  0
   15.5347   -7.1824   20.9383 C   0  0  0  0  0  0  0  0  0  0  0  0
   14.5532   -6.2217   21.5661 C   0  0  0  0  0  0  0  0  0  0  0  0
   13.6343   -5.8085   20.4405 C   0  0  0  0  0  0  0  0  0  0  0  0
   13.5829   -6.9908   19.4932 C   0  0  0  0  0  0  0  0  0  0  0  0
   18.4947   -9.6147   13.3328 C   0  0  0  0  0  0  0  0  0  0  0  0
   18.9960  -11.0010   13.7410 C   0  0  0  0  0  0  0  0  0  0  0  0
   19.1165  -11.1373   15.2447 C   0  0  0  0  0  0  0  0  0  0  0  0
   18.4347  -12.4350   15.5479 C   0  0  0  0  0  0  0  0  0  0  0  0
   18.2119  -13.0448   14.1870 C   0  0  0  0  0  0  0  0  0  0  0  0
   18.1519  -12.0082   13.2454 O   0  0  0  0  0  0  0  0  0  0  0  0
  6  7  2  0  0  0
  7  8  1  0  0  0
  7  9  1  0  0  0
  9 10  2  0  0  0
 10 11  1  0  0  0
 11 12  2  0  0  0
 12 13  1  0  0  0
 13 14  2  0  0  0
 10 15  1  0  0  0
  6  1  1  0  0  0
  1  2  2  0  0  0
  2  3  1  0  0  0
  3  4  2  0  0  0
  4 18  1  0  0  0
 18 19  1  0  0  0
 19 20  1  0  0  0
 20 21  2  0  0  0
 20 22  1  0  0  0
 22 24  1  0  0  0
 24 25  1  0  0  0
 25 26  1  0  0  0
 26 27  1  0  0  0
 27 28  1  0  0  0
  4  5  1  0  0  0
  5 29  1  0  0  0
 29 30  1  0  0  0
 30 31  1  0  0  0
 31 32  1  0  0  0
 32 33  1  0  0  0
 33 34  1  0  0  0
 15  6  1  0  0  0
  5  1  1  0  0  0
 34 30  1  0  0  0
 14  9  1  0  0  0
 28 24  1  0  0  0
  8 16  1  0  0  0
  8 17  1  0  0  0
 22 23  1  0  0  0
M  END
>  <minimizedAffinity>
-4.96417

>  <minimizedRMSD>
1.37709

$$$$
ChemDiv-G857-2331 MCULE-3266575996 MolPort-003-602-872 PubChem-7584432 ZINC000005250510


 27 29  0  0  0  0  0  0  0  0999 V2000
   16.7583   -9.6698   12.3605 C   0  0  0  0  0  0  0  0  0  0  0  0
   17.5213  -10.1811   11.2316 N   0  0  0  0  0  0  0  0  0  0  0  0
   17.5936  -11.1574   11.1275 H   0  0  0  0  0  0  0  0  0  0  0  0
   17.7736   -9.2727    8.9299 C   0  0  0  0  0  0  0  0  0  0  0  0
   18.1734   -9.3525   10.2632 C   0  0  0  0  0  0  0  0  0  0  0  0
   19.2441   -8.5879   10.6364 N   0  0  0  0  0  0  0  0  0  0  0  0
   19.9012   -7.7787    9.7415 C   0  0  0  0  0  0  0  0  0  0  0  0
   19.4983   -7.7119    8.4360 N   0  0  0  0  0  0  0  0  0  0  0  0
   18.4358   -8.4676    8.0728 C   0  0  0  0  0  0  0  0  0  0  0  0
   17.8614   -8.5783    6.8716 N   0  0  0  0  0  0  0  0  0  0  0  0
   16.8676   -9.4523    7.0018 N   0  0  0  0  0  0  0  0  0  0  0  0
   16.7842   -9.8951    8.2587 N   0  0  0  0  0  0  0  0  0  0  0  0
   18.2603   -7.9416    5.6272 C   0  0  0  0  0  0  0  0  0  0  0  0
   19.4899   -8.6295    5.0669 C   0  0  0  0  0  0  0  0  0  0  0  0
   17.4524  -10.0391   13.6660 C   0  0  0  0  0  0  0  0  0  0  0  0
   16.8355   -9.4214   14.8898 C   0  0  0  0  0  0  0  0  0  0  0  0
   16.0115   -8.2849   14.8279 C   0  0  0  0  0  0  0  0  0  0  0  0
   15.4561   -7.7509   15.9937 C   0  0  0  0  0  0  0  0  0  0  0  0
   15.7150   -8.3491   17.2309 C   0  0  0  0  0  0  0  0  0  0  0  0
   16.5347   -9.4802   17.2976 C   0  0  0  0  0  0  0  0  0  0  0  0
   17.0903  -10.0141   16.1312 C   0  0  0  0  0  0  0  0  0  0  0  0
   15.0276   -7.6728   18.6958 S   0  0  0  0  0  0  0  0  0  0  0  0
   16.2938   -7.1212   19.7340 N   0  0  0  0  0  0  0  0  0  0  0  0
   14.2348   -8.7268   19.4164 O   0  0  0  0  0  0  0  0  0  0  0  0
   14.1295   -6.5206   18.3451 O   0  0  0  0  0  0  0  0  0  0  0  0
   16.9034   -7.9036   19.9721 H   0  0  0  0  0  0  0  0  0  0  0  0
   15.8898   -6.7334   20.5865 H   0  0  0  0  0  0  0  0  0  0  0  0
  4  5  1  0  0  0
  5  2  1  0  0  0
  2  1  1  0  0  0
  1 15  1  0  0  0
 15 16  1  0  0  0
 16 17  2  0  0  0
 17 18  1  0  0  0
 18 19  2  0  0  0
 19 20  1  0  0  0
 20 21  2  0  0  0
 19 22  1  0  0  0
 22 23  1  0  0  0
 22 24  2  0  0  0
 22 25  2  0  0  0
  5  6  2  0  0  0
  6  7  1  0  0  0
  7  8  2  0  0  0
  8  9  1  0  0  0
  9 10  1  0  0  0
 10 11  1  0  0  0
 11 12  2  0  0  0
 10 13  1  0  0  0
 13 14  1  0  0  0
  9  4  2  0  0  0
 12  4  1  0  0  0
 21 16  1  0  0  0
  2  3  1  0  0  0
 23 26  1  0  0  0
 23 27  1  0  0  0
M  END
>  <minimizedAffinity>
-4.95631

>  <minimizedRMSD>
1.73170

$$$$
ChemDiv-D483-1549 MCULE-3094171317 MolPort-007-710-946 PubChem-20899076 ZINC000015859239 ZINC15859239


 33 36  0  0  0  0  0  0  0  0999 V2000
   15.7510   -8.7046   13.6860 C   0  0  0  0  0  0  0  0  0  0  0  0
   16.9171   -9.5461   13.9031 N   0  0  0  0  0  0  0  0  0  0  0  0
   17.3515  -10.5772   13.1588 C   0  0  0  0  0  0  0  0  0  0  0  0
   18.4847  -11.1030   13.6649 N   0  0  0  0  0  0  0  0  0  0  0  0
   18.7852  -10.4018   14.7500 N   0  0  0  0  0  0  0  0  0  0  0  0
   17.8309   -9.4608   14.8837 C   0  0  0  0  0  0  0  0  0  0  0  0
   16.6702  -11.0872   11.9289 C   0  0  0  0  0  0  0  0  0  0  0  0
   16.9398  -10.1850   10.7580 C   0  0  0  0  0  0  0  0  0  0  0  0
   15.9498   -9.9239    9.8005 C   0  0  0  0  0  0  0  0  0  0  0  0
   14.5796  -10.5006    9.9184 C   0  0  0  0  0  0  0  0  0  0  0  0
   16.2310   -9.1249    8.7428 N   0  0  0  0  0  0  0  0  0  0  0  0
   17.4579   -8.5638    8.5782 C   0  0  0  0  0  0  0  0  0  0  0  0
   18.4520   -8.8008    9.5016 N   0  0  0  0  0  0  0  0  0  0  0  0
   19.6879   -8.2391    9.3416 C   0  0  0  0  0  0  0  0  0  0  0  0
   19.9679   -7.4197    8.2486 C   0  0  0  0  0  0  0  0  0  0  0  0
   18.9714   -7.1726    7.3090 C   0  0  0  0  0  0  0  0  0  0  0  0
   17.7094   -7.7420    7.4659 C   0  0  0  0  0  0  0  0  0  0  0  0
   16.6572   -7.4630    6.4467 C   0  0  0  0  0  0  0  0  0  0  0  0
   18.2057   -9.6025   10.5846 C   0  0  0  0  0  0  0  0  0  0  0  0
   19.1140   -9.8231   11.4357 O   0  0  0  0  0  0  0  0  0  0  0  0
   17.8002   -8.2545   16.2095 S   0  0  0  0  0  0  0  0  0  0  0  0
   16.5065   -9.1455   17.1297 C   0  0  0  0  0  0  0  0  0  0  0  0
   15.5857   -8.1871   17.8029 C   0  0  0  0  0  0  0  0  0  0  0  0
   14.9279   -7.3731   17.1026 O   0  0  0  0  0  0  0  0  0  0  0  0
   15.4558   -8.2146   19.2307 N   0  0  0  0  0  0  0  0  0  0  0  0
   15.9780   -8.8990   19.7084 H   0  0  0  0  0  0  0  0  0  0  0  0
   14.6437   -7.3482   20.0344 C   0  0  0  0  0  0  0  0  0  0  0  0
   13.3181   -7.0411   19.6900 C   0  0  0  0  0  0  0  0  0  0  0  0
   12.5573   -6.1900   20.4968 C   0  0  0  0  0  0  0  0  0  0  0  0
   13.1167   -5.6395   21.6530 C   0  0  0  0  0  0  0  0  0  0  0  0
   12.3090   -4.7346   22.5114 C   0  0  0  0  0  0  0  0  0  0  0  0
   14.4363   -5.9399   22.0012 C   0  0  0  0  0  0  0  0  0  0  0  0
   15.1962   -6.7915   21.1934 C   0  0  0  0  0  0  0  0  0  0  0  0
  1  2  1  0  0  0
  2  3  1  0  0  0
  3  7  1  0  0  0
  3  4  2  0  0  0
  7  8  1  0  0  0
  8  9  2  0  0  0
  9 10  1  0  0  0
  9 11  1  0  0  0
 11 12  2  0  0  0
 12 13  1  0  0  0
 13 14  1  0  0  0
 13 19  1  0  0  0
 14 15  2  0  0  0
 15 16  1  0  0  0
 16 17  2  0  0  0
 17 18  1  0  0  0
 17 12  1  0  0  0
 19 20  2  0  0  0
 19  8  1  0  0  0
  4  5  1  0  0  0
  5  6  2  0  0  0
  6 21  1  0  0  0
  6  2  1  0  0  0
 21 22  1  0  0  0
 22 23  1  0  0  0
 23 24  2  0  0  0
 23 25  1  0  0  0
 25 27  1  0  0  0
 27 28  2  0  0  0
 28 29  1  0  0  0
 29 30  2  0  0  0
 30 31  1  0  0  0
 30 32  1  0  0  0
 32 33  2  0  0  0
 33 27  1  0  0  0
 25 26  1  0  0  0
M  END
>  <minimizedAffinity>
-4.90188

>  <minimizedRMSD>
3.09406

$$$$
ChemDiv-C679-5553 MCULE-5535545603 MolPort-010-797-247 PubChem-52096635 ZINC000041077404


 27 29  0  0  0  0  0  0  0  0999 V2000
   17.2817  -10.0568   15.1203 C   0  0  0  0  0  0  0  0  0  0  0  0
   18.1001  -11.0496   15.6816 C   0  0  0  0  0  0  0  0  0  0  0  0
   18.0522  -11.3074   17.0537 C   0  0  0  0  0  0  0  0  0  0  0  0
   17.1874  -10.5758   17.8720 C   0  0  0  0  0  0  0  0  0  0  0  0
   16.3658   -9.5840   17.3265 C   0  0  0  0  0  0  0  0  0  0  0  0
   16.4195   -9.3300   15.9475 C   0  0  0  0  0  0  0  0  0  0  0  0
   15.4937   -8.8537   18.1993 N   0  0  0  0  0  0  0  0  0  0  0  0
   14.6873   -7.7198   17.8536 C   0  0  0  0  0  0  0  0  0  0  0  0
   14.6762   -7.2589   16.6814 O   0  0  0  0  0  0  0  0  0  0  0  0
   15.4433   -9.1629   19.1327 H   0  0  0  0  0  0  0  0  0  0  0  0
   13.8578   -7.0605   18.9100 C   0  0  0  0  0  0  0  0  0  0  0  0
   14.5766   -6.9411   20.2554 C   0  0  0  0  0  0  0  0  0  0  0  0
   14.0293   -7.9189   21.2798 C   0  0  0  0  0  0  0  0  0  0  0  0
   16.0792   -7.1047   20.1120 C   0  0  0  0  0  0  0  0  0  0  0  0
   17.3051   -9.7735   13.7525 O   0  0  0  0  0  0  0  0  0  0  0  0
   18.0441  -10.5513   12.8200 C   0  0  0  0  0  0  0  0  0  0  0  0
   17.4345   -8.9815    8.9512 N   0  0  0  0  0  0  0  0  0  0  0  0
   17.4109   -8.3896    7.7271 C   0  0  0  0  0  0  0  0  0  0  0  0
   18.5738   -7.6740    7.4516 C   0  0  0  0  0  0  0  0  0  0  0  0
   19.6459   -7.7815    8.7562 S   0  0  0  0  0  0  0  0  0  0  0  0
   18.5810   -8.7427    9.6266 C   0  0  0  0  0  0  0  0  0  0  0  0
   18.7948   -9.2452   10.8672 N   0  0  0  0  0  0  0  0  0  0  0  0
   17.8344  -10.0171   11.4486 C   0  0  0  0  0  0  0  0  0  0  0  0
   16.6299  -10.2757   10.7759 C   0  0  0  0  0  0  0  0  0  0  0  0
   16.4447   -9.7397    9.4970 C   0  0  0  0  0  0  0  0  0  0  0  0
   15.3743   -9.9595    8.8692 O   0  0  0  0  0  0  0  0  0  0  0  0
   18.8356   -6.9239    6.1959 C   0  0  0  0  0  0  0  0  0  0  0  0
 17 18  1  0  0  0
 18 19  2  0  0  0
 19 20  1  0  0  0
 20 21  1  0  0  0
 21 22  2  0  0  0
 22 23  1  0  0  0
 23 16  1  0  0  0
 16 15  1  0  0  0
 15  1  1  0  0  0
  1  2  2  0  0  0
  2  3  1  0  0  0
  3  4  2  0  0  0
  4  5  1  0  0  0
  5  6  2  0  0  0
  5  7  1  0  0  0
  7  8  1  0  0  0
  8 11  1  0  0  0
 11 12  1  0  0  0
 12 13  1  0  0  0
 12 14  1  0  0  0
  8  9  2  0  0  0
 23 24  2  0  0  0
 24 25  1  0  0  0
 25 26  2  0  0  0
 19 27  1  0  0  0
 21 17  1  0  0  0
  6  1  1  0  0  0
 25 17  1  0  0  0
  7 10  1  0  0  0
M  END
>  <minimizedAffinity>
-4.86603

>  <minimizedRMSD>
1.27567

$$$$
ChemDiv-8006-3204 CSC026705770 MCULE-8648716188 MolPort-001-929-908 PubChem-1822798 ZINC000002187541 ZINC02187541


 32 35  0  0  0  0  0  0  0  0999 V2000
   17.5823   -9.8894   11.9403 O   0  0  0  0  0  0  0  0  0  0  0  0
   16.2381   -9.9788   11.5574 C   0  0  0  0  0  0  0  0  0  0  0  0
   15.8498   -9.6461   10.2373 C   0  0  0  0  0  0  0  0  0  0  0  0
   14.4950   -9.7433    9.8806 C   0  0  0  0  0  0  0  0  0  0  0  0
   13.5374  -10.1605   10.8056 C   0  0  0  0  0  0  0  0  0  0  0  0
   12.1095  -10.2553   10.4055 C   0  0  0  0  0  0  0  0  0  0  0  0
   13.9210  -10.4881   12.1045 C   0  0  0  0  0  0  0  0  0  0  0  0
   15.2621  -10.3979   12.4767 C   0  0  0  0  0  0  0  0  0  0  0  0
   16.8008   -9.2071    9.2477 N   0  0  0  0  0  0  0  0  0  0  0  0
   17.8323   -8.4009    9.5005 N   0  0  0  0  0  0  0  0  0  0  0  0
   18.4494   -8.2471    8.3206 C   0  0  0  0  0  0  0  0  0  0  0  0
   19.5850   -7.5022    8.0203 C   0  0  0  0  0  0  0  0  0  0  0  0
   20.0221   -7.5171    6.6810 C   0  0  0  0  0  0  0  0  0  0  0  0
   19.3225   -8.2628    5.7021 C   0  0  0  0  0  0  0  0  0  0  0  0
   18.1756   -9.0044    6.0483 C   0  0  0  0  0  0  0  0  0  0  0  0
   17.7774   -8.9633    7.3805 C   0  0  0  0  0  0  0  0  0  0  0  0
   16.7352   -9.5700    7.9659 N   0  0  0  0  0  0  0  0  0  0  0  0
   18.2286  -10.6512   13.3297 S   0  0  0  0  0  0  0  0  0  0  0  0
   19.7203  -10.4744   13.3468 O   0  0  0  0  0  0  0  0  0  0  0  0
   17.9030  -12.1181   13.2837 O   0  0  0  0  0  0  0  0  0  0  0  0
   16.4310   -8.7749   17.0786 C   0  0  0  0  0  0  0  0  0  0  0  0
   16.4663   -8.0593   15.8719 C   0  0  0  0  0  0  0  0  0  0  0  0
   17.0197   -8.6348   14.7251 C   0  0  0  0  0  0  0  0  0  0  0  0
   17.5418   -9.9306   14.7742 C   0  0  0  0  0  0  0  0  0  0  0  0
   17.5113  -10.6476   15.9744 C   0  0  0  0  0  0  0  0  0  0  0  0
   16.9576  -10.0706   17.1210 C   0  0  0  0  0  0  0  0  0  0  0  0
   14.6306   -7.5103   18.3962 C   0  0  0  0  0  0  0  0  0  0  0  0
   13.8960   -7.3156   17.3892 O   0  0  0  0  0  0  0  0  0  0  0  0
   15.8709   -8.2186   18.2760 N   0  0  0  0  0  0  0  0  0  0  0  0
   16.3932   -8.3356   19.1023 H   0  0  0  0  0  0  0  0  0  0  0  0
   13.0210   -6.3451   19.8476 C   0  0  0  0  0  0  0  0  0  0  0  0
   14.2450   -7.0367   19.6502 O   0  0  0  0  0  0  0  0  0  0  0  0
 31 32  1  0  0  0
 32 27  1  0  0  0
 27 28  2  0  0  0
 27 29  1  0  0  0
 29 21  1  0  0  0
 21 22  2  0  0  0
 22 23  1  0  0  0
 23 24  2  0  0  0
 24 25  1  0  0  0
 24 18  1  0  0  0
 25 26  2  0  0  0
 26 21  1  0  0  0
 18 19  2  0  0  0
 18 20  2  0  0  0
 18  1  1  0  0  0
  1  2  1  0  0  0
  2  3  1  0  0  0
  3  4  2  0  0  0
  3  9  1  0  0  0
  4  5  1  0  0  0
  5  6  1  0  0  0
  5  7  2  0  0  0
  7  8  1  0  0  0
  8  2  2  0  0  0
  9 10  1  0  0  0
 10 11  2  0  0  0
 11 12  1  0  0  0
 12 13  2  0  0  0
 13 14  1  0  0  0
 14 15  2  0  0  0
 15 16  1  0  0  0
 16 17  2  0  0  0
 16 11  1  0  0  0
 17  9  1  0  0  0
 29 30  1  0  0  0
M  END
>  <minimizedAffinity>
-4.85372

>  <minimizedRMSD>
1.13498

$$$$
ChemDiv-C125-1250 MCULE-5441584295 MolPort-007-589-535 PubChem-46504628 ZINC000004734157 ZINC04734157


 39 43  0  0  0  0  0  0  0  0999 V2000
   16.3895   -9.9118   16.8889 N   0  0  0  0  0  0  0  0  0  0  0  0
   16.2807   -9.4163   15.6238 C   0  0  0  0  0  0  0  0  0  0  0  0
   16.8985  -10.0355   14.5320 C   0  0  0  0  0  0  0  0  0  0  0  0
   17.6678  -11.1960   14.7679 C   0  0  0  0  0  0  0  0  0  0  0  0
   18.3477  -11.8573   13.7304 C   0  0  0  0  0  0  0  0  0  0  0  0
   19.1186  -12.9930   13.9893 C   0  0  0  0  0  0  0  0  0  0  0  0
   19.2275  -13.4814   15.2927 C   0  0  0  0  0  0  0  0  0  0  0  0
   18.5675  -12.8344   16.3381 C   0  0  0  0  0  0  0  0  0  0  0  0
   17.7896  -11.6921   16.0894 C   0  0  0  0  0  0  0  0  0  0  0  0
   17.1362  -11.0273   17.1399 C   0  0  0  0  0  0  0  0  0  0  0  0
   17.2341  -11.4644   18.3201 O   0  0  0  0  0  0  0  0  0  0  0  0
   15.1893   -7.9340   17.8756 C   0  0  0  0  0  0  0  0  0  0  0  0
   14.9582   -7.4172   16.7488 O   0  0  0  0  0  0  0  0  0  0  0  0
   15.7777   -9.2401   17.9645 N   0  0  0  0  0  0  0  0  0  0  0  0
   15.7517   -9.6970   18.8362 H   0  0  0  0  0  0  0  0  0  0  0  0
   13.3506   -5.6318   20.2449 C   0  0  0  0  0  0  0  0  0  0  0  0
   13.7393   -6.3033   19.0812 C   0  0  0  0  0  0  0  0  0  0  0  0
   14.8005   -7.2193   19.1030 C   0  0  0  0  0  0  0  0  0  0  0  0
   15.4806   -7.4530   20.3059 C   0  0  0  0  0  0  0  0  0  0  0  0
   15.1096   -6.7782   21.4781 C   0  0  0  0  0  0  0  0  0  0  0  0
   14.0423   -5.8743   21.4422 C   0  0  0  0  0  0  0  0  0  0  0  0
   12.0956   -3.6881   21.1224 C   0  0  0  0  0  0  0  0  0  0  0  0
   12.2743   -4.7403   20.1846 O   0  0  0  0  0  0  0  0  0  0  0  0
   15.7806   -6.9834   22.6872 O   0  0  0  0  0  0  0  0  0  0  0  0
   17.0870   -6.4822   22.9367 C   0  0  0  0  0  0  0  0  0  0  0  0
   16.7196   -9.4206   13.1939 C   0  0  0  0  0  0  0  0  0  0  0  0
   16.1816   -8.2815   13.1076 O   0  0  0  0  0  0  0  0  0  0  0  0
   17.0883  -10.1322   12.0042 N   0  0  0  0  0  0  0  0  0  0  0  0
   17.3429  -11.0775   12.1077 H   0  0  0  0  0  0  0  0  0  0  0  0
   17.1188   -9.5893   10.6785 C   0  0  0  0  0  0  0  0  0  0  0  0
   16.0402   -9.8222    9.8171 C   0  0  0  0  0  0  0  0  0  0  0  0
   16.0434   -9.3123    8.5569 N   0  0  0  0  0  0  0  0  0  0  0  0
   17.0944   -8.5910    8.0825 C   0  0  0  0  0  0  0  0  0  0  0  0
   17.0809   -8.0995    6.7748 C   0  0  0  0  0  0  0  0  0  0  0  0
   18.1768   -7.3776    6.2878 C   0  0  0  0  0  0  0  0  0  0  0  0
   19.2824   -7.1393    7.1106 C   0  0  0  0  0  0  0  0  0  0  0  0
   19.2966   -7.6158    8.4268 C   0  0  0  0  0  0  0  0  0  0  0  0
   18.2079   -8.3434    8.9142 C   0  0  0  0  0  0  0  0  0  0  0  0
   18.2122   -8.8482   10.2117 C   0  0  0  0  0  0  0  0  0  0  0  0
 22 23  1  0  0  0
 23 16  1  0  0  0
 16 17  2  0  0  0
 17 18  1  0  0  0
 18 19  2  0  0  0
 18 12  1  0  0  0
 19 20  1  0  0  0
 20 24  1  0  0  0
 20 21  2  0  0  0
 24 25  1  0  0  0
 21 16  1  0  0  0
 12 13  2  0  0  0
 12 14  1  0  0  0
 14  1  1  0  0  0
  1  2  1  0  0  0
  2  3  2  0  0  0
  3 26  1  0  0  0
  3  4  1  0  0  0
 26 27  2  0  0  0
 26 28  1  0  0  0
 28 30  1  0  0  0
 30 31  2  0  0  0
 31 32  1  0  0  0
 32 33  2  0  0  0
 33 34  1  0  0  0
 34 35  2  0  0  0
 35 36  1  0  0  0
 36 37  2  0  0  0
 37 38  1  0  0  0
 38 39  2  0  0  0
 38 33  1  0  0  0
 39 30  1  0  0  0
  4  5  2  0  0  0
  5  6  1  0  0  0
  6  7  2  0  0  0
  7  8  1  0  0  0
  8  9  2  0  0  0
  9 10  1  0  0  0
  9  4  1  0  0  0
 10 11  2  0  0  0
 10  1  1  0  0  0
 14 15  1  0  0  0
 28 29  1  0  0  0
M  END
>  <minimizedAffinity>
-4.84279

>  <minimizedRMSD>
1.40143

$$$$
ChemDiv-G756-2787 MCULE-6316924452 MolPort-007-880-088 PubChem-46356799 ZINC000033068315 ZINC33068315


 34 37  0  0  0  0  0  0  0  0999 V2000
   16.7959   -9.2570   17.2216 C   0  0  0  0  0  0  0  0  0  0  0  0
   17.0563   -9.0200   15.8632 C   0  0  0  0  0  0  0  0  0  0  0  0
   17.6567  -10.0023   15.0696 C   0  0  0  0  0  0  0  0  0  0  0  0
   17.9998  -11.2368   15.6433 C   0  0  0  0  0  0  0  0  0  0  0  0
   17.7434  -11.4791   16.9949 C   0  0  0  0  0  0  0  0  0  0  0  0
   17.1435  -10.4911   17.7802 C   0  0  0  0  0  0  0  0  0  0  0  0
   15.0171   -7.4884   17.7516 C   0  0  0  0  0  0  0  0  0  0  0  0
   14.4072   -7.6252   16.6585 O   0  0  0  0  0  0  0  0  0  0  0  0
   16.1785   -8.2707   18.0590 N   0  0  0  0  0  0  0  0  0  0  0  0
   16.5957   -8.1141   18.9368 H   0  0  0  0  0  0  0  0  0  0  0  0
   14.4985   -6.5212   18.7595 C   0  0  0  0  0  0  0  0  0  0  0  0
   13.0757   -6.5078   18.7362 O   0  0  0  0  0  0  0  0  0  0  0  0
    9.4011   -9.4800   17.4905 C   0  0  0  0  0  0  0  0  0  0  0  0
   10.4325   -9.0658   18.4763 C   0  0  0  0  0  0  0  0  0  0  0  0
   11.2781   -7.9915   18.1921 C   0  0  0  0  0  0  0  0  0  0  0  0
   12.2605   -7.5898   19.1048 C   0  0  0  0  0  0  0  0  0  0  0  0
   12.3706   -8.2758   20.3414 C   0  0  0  0  0  0  0  0  0  0  0  0
   13.3232   -7.8642   21.4109 C   0  0  0  0  0  0  0  0  0  0  0  0
   11.5190   -9.3517   20.6152 C   0  0  0  0  0  0  0  0  0  0  0  0
   10.5567   -9.7498   19.6859 C   0  0  0  0  0  0  0  0  0  0  0  0
   17.9000   -9.7270   13.7218 O   0  0  0  0  0  0  0  0  0  0  0  0
   18.0163  -10.7471   12.7387 C   0  0  0  0  0  0  0  0  0  0  0  0
   17.6771  -10.1920   11.4018 C   0  0  0  0  0  0  0  0  0  0  0  0
   16.4307  -10.4440   10.8394 C   0  0  0  0  0  0  0  0  0  0  0  0
   16.1291   -9.8882    9.5978 C   0  0  0  0  0  0  0  0  0  0  0  0
   15.0008  -10.1215    9.0839 O   0  0  0  0  0  0  0  0  0  0  0  0
   17.0487   -9.1043    8.9524 N   0  0  0  0  0  0  0  0  0  0  0  0
   16.7458   -8.5627    7.7352 C   0  0  0  0  0  0  0  0  0  0  0  0
   17.6648   -7.7606    7.0587 C   0  0  0  0  0  0  0  0  0  0  0  0
   18.9071   -7.5110    7.6356 C   0  0  0  0  0  0  0  0  0  0  0  0
   19.2219   -8.0598    8.8772 C   0  0  0  0  0  0  0  0  0  0  0  0
   20.5609   -7.7833    9.4732 C   0  0  0  0  0  0  0  0  0  0  0  0
   18.2748   -8.8631    9.5351 C   0  0  0  0  0  0  0  0  0  0  0  0
   18.5683   -9.4058   10.7482 N   0  0  0  0  0  0  0  0  0  0  0  0
 13 14  1  0  0  0
 14 15  2  0  0  0
 15 16  1  0  0  0
 16 12  1  0  0  0
 16 17  2  0  0  0
 12 11  1  0  0  0
 11  7  1  0  0  0
  7  8  2  0  0  0
  7  9  1  0  0  0
  9  1  1  0  0  0
  1  2  2  0  0  0
  2  3  1  0  0  0
  3 21  1  0  0  0
  3  4  2  0  0  0
 21 22  1  0  0  0
 22 23  1  0  0  0
 23 24  2  0  0  0
 24 25  1  0  0  0
 25 26  2  0  0  0
 25 27  1  0  0  0
 27 28  1  0  0  0
 28 29  2  0  0  0
 29 30  1  0  0  0
 30 31  2  0  0  0
 31 32  1  0  0  0
 31 33  1  0  0  0
 33 34  2  0  0  0
 33 27  1  0  0  0
 34 23  1  0  0  0
  4  5  1  0  0  0
  5  6  2  0  0  0
  6  1  1  0  0  0
 17 18  1  0  0  0
 17 19  1  0  0  0
 19 20  2  0  0  0
 20 14  1  0  0  0
  9 10  1  0  0  0
M  END
>  <minimizedAffinity>
-4.83507

>  <minimizedRMSD>
1.36230

$$$$
ChemDiv-C548-3447 MolPort-007-642-461 PubChem-20862320 ZINC000009607844


 33 36  0  0  0  0  0  0  0  0999 V2000
   15.9007   -8.1520   17.6615 C   0  0  0  0  0  0  0  0  0  0  0  0
   16.2189   -9.5788   18.1061 C   0  0  0  0  0  0  0  0  0  0  0  0
   17.0585  -10.2857   17.0459 C   0  0  0  0  0  0  0  0  0  0  0  0
   16.3259  -10.2891   15.7035 C   0  0  0  0  0  0  0  0  0  0  0  0
   15.9916   -8.8634   15.2617 C   0  0  0  0  0  0  0  0  0  0  0  0
   15.1555   -8.1615   16.3277 C   0  0  0  0  0  0  0  0  0  0  0  0
   15.4758   -7.5421   20.0847 N   0  0  0  0  0  0  0  0  0  0  0  0
   15.0968   -7.4491   18.7029 C   0  0  0  0  0  0  0  0  0  0  0  0
   14.0913   -6.7792   18.3479 O   0  0  0  0  0  0  0  0  0  0  0  0
   16.2772   -8.0768   20.2876 H   0  0  0  0  0  0  0  0  0  0  0  0
   12.8711   -5.8536   22.2115 C   0  0  0  0  0  0  0  0  0  0  0  0
   13.5617   -5.7683   23.4243 C   0  0  0  0  0  0  0  0  0  0  0  0
   14.8644   -6.2625   23.5298 C   0  0  0  0  0  0  0  0  0  0  0  0
   15.4836   -6.8446   22.4206 C   0  0  0  0  0  0  0  0  0  0  0  0
   14.8077   -6.9367   21.1997 C   0  0  0  0  0  0  0  0  0  0  0  0
   13.4998   -6.4390   21.1009 C   0  0  0  0  0  0  0  0  0  0  0  0
   11.0146   -4.8298   20.9381 C   0  0  0  0  0  0  0  0  0  0  0  0
   11.5680   -5.3543   22.1371 O   0  0  0  0  0  0  0  0  0  0  0  0
   17.1422  -11.0114   14.6384 C   0  0  0  0  0  0  0  0  0  0  0  0
   17.0434  -10.3308   13.3543 N   0  0  0  0  0  0  0  0  0  0  0  0
   16.6915   -9.3831   13.4899 H   0  0  0  0  0  0  0  0  0  0  0  0
   18.6284  -10.2770   12.6617 S   0  0  0  0  0  0  0  0  0  0  0  0
   19.5478   -9.5100   13.5716 O   0  0  0  0  0  0  0  0  0  0  0  0
   19.1629  -11.6704   12.4806 O   0  0  0  0  0  0  0  0  0  0  0  0
   18.5415   -9.4801   11.0958 C   0  0  0  0  0  0  0  0  0  0  0  0
   19.5967   -8.6602   10.6691 C   0  0  0  0  0  0  0  0  0  0  0  0
   19.5455   -8.0100    9.4269 C   0  0  0  0  0  0  0  0  0  0  0  0
   18.4370   -8.1660    8.5861 C   0  0  0  0  0  0  0  0  0  0  0  0
   17.3808   -8.9772    8.9983 C   0  0  0  0  0  0  0  0  0  0  0  0
   16.2733   -9.1740    8.2417 N   0  0  0  0  0  0  0  0  0  0  0  0
   15.4198  -10.1846    9.2351 S   0  0  0  0  0  0  0  0  0  0  0  0
   16.3545  -10.4054   10.5814 N   0  0  0  0  0  0  0  0  0  0  0  0
   17.4281   -9.6394   10.2585 C   0  0  0  0  0  0  0  0  0  0  0  0
 17 18  1  0  0  0
 18 11  1  0  0  0
 11 12  2  0  0  0
 12 13  1  0  0  0
 13 14  2  0  0  0
 14 15  1  0  0  0
 15  7  1  0  0  0
  7  8  1  0  0  0
  8  9  2  0  0  0
  8  1  1  0  0  0
  1  2  1  0  0  0
  2  3  1  0  0  0
  3  4  1  0  0  0
  4 19  1  0  0  0
 19 20  1  0  0  0
 20 22  1  0  0  0
 22 23  2  0  0  0
 22 24  2  0  0  0
 22 25  1  0  0  0
 25 26  2  0  0  0
 26 27  1  0  0  0
 27 28  2  0  0  0
 28 29  1  0  0  0
 29 30  2  0  0  0
 30 31  1  0  0  0
 31 32  1  0  0  0
 32 33  2  0  0  0
  4  5  1  0  0  0
  5  6  1  0  0  0
 15 16  2  0  0  0
 16 11  1  0  0  0
  6  1  1  0  0  0
 33 25  1  0  0  0
 33 29  1  0  0  0
  7 10  1  0  0  0
 20 21  1  0  0  0
M  END
>  <minimizedAffinity>
-4.82893

>  <minimizedRMSD>
2.12969

$$$$
ChemDiv-C679-4008 MCULE-5042046058 MolPort-007-655-740 PubChem-20874183 ZINC000013367828


 27 29  0  0  0  0  0  0  0  0999 V2000
   17.2880  -10.0606   15.1198 C   0  0  0  0  0  0  0  0  0  0  0  0
   18.1076  -11.0542   15.6779 C   0  0  0  0  0  0  0  0  0  0  0  0
   18.0605  -11.3158   17.0494 C   0  0  0  0  0  0  0  0  0  0  0  0
   17.1956  -10.5872   17.8701 C   0  0  0  0  0  0  0  0  0  0  0  0
   16.3730   -9.5946   17.3276 C   0  0  0  0  0  0  0  0  0  0  0  0
   16.4257   -9.3367   15.9492 C   0  0  0  0  0  0  0  0  0  0  0  0
   15.5005   -8.8673   18.2029 N   0  0  0  0  0  0  0  0  0  0  0  0
   14.6983   -7.7290   17.8623 C   0  0  0  0  0  0  0  0  0  0  0  0
   14.6915   -7.2607   16.6931 O   0  0  0  0  0  0  0  0  0  0  0  0
   15.4468   -9.1823   19.1341 H   0  0  0  0  0  0  0  0  0  0  0  0
   13.8679   -7.0741   18.9208 C   0  0  0  0  0  0  0  0  0  0  0  0
   14.5927   -6.9423   20.2618 C   0  0  0  0  0  0  0  0  0  0  0  0
   14.0573   -7.9180   21.2944 C   0  0  0  0  0  0  0  0  0  0  0  0
   16.0957   -7.0968   20.1116 C   0  0  0  0  0  0  0  0  0  0  0  0
   17.3105   -9.7736   13.7527 O   0  0  0  0  0  0  0  0  0  0  0  0
   18.0346  -10.5594   12.8152 C   0  0  0  0  0  0  0  0  0  0  0  0
   17.4382   -8.9667    8.9568 N   0  0  0  0  0  0  0  0  0  0  0  0
   17.3922   -8.3911    7.7577 N   0  0  0  0  0  0  0  0  0  0  0  0
   18.5194   -7.6898    7.4883 C   0  0  0  0  0  0  0  0  0  0  0  0
   19.6386   -7.7616    8.7615 S   0  0  0  0  0  0  0  0  0  0  0  0
   18.5809   -8.7310    9.6354 C   0  0  0  0  0  0  0  0  0  0  0  0
   18.7927   -9.2401   10.8736 N   0  0  0  0  0  0  0  0  0  0  0  0
   17.8297  -10.0165   11.4464 C   0  0  0  0  0  0  0  0  0  0  0  0
   16.6268  -10.2719   10.7673 C   0  0  0  0  0  0  0  0  0  0  0  0
   16.4465   -9.7275    9.4910 C   0  0  0  0  0  0  0  0  0  0  0  0
   15.3808   -9.9410    8.8543 O   0  0  0  0  0  0  0  0  0  0  0  0
   18.7350   -6.9472    6.2193 C   0  0  0  0  0  0  0  0  0  0  0  0
 17 18  1  0  0  0
 18 19  2  0  0  0
 19 20  1  0  0  0
 20 21  1  0  0  0
 21 22  2  0  0  0
 22 23  1  0  0  0
 23 16  1  0  0  0
 16 15  1  0  0  0
 15  1  1  0  0  0
  1  2  2  0  0  0
  2  3  1  0  0  0
  3  4  2  0  0  0
  4  5  1  0  0  0
  5  6  2  0  0  0
  5  7  1  0  0  0
  7  8  1  0  0  0
  8 11  1  0  0  0
 11 12  1  0  0  0
 12 13  1  0  0  0
 12 14  1  0  0  0
  8  9  2  0  0  0
 23 24  2  0  0  0
 24 25  1  0  0  0
 25 26  2  0  0  0
 19 27  1  0  0  0
 21 17  1  0  0  0
  6  1  1  0  0  0
 25 17  1  0  0  0
  7 10  1  0  0  0
M  END
>  <minimizedAffinity>
-4.82112

>  <minimizedRMSD>
1.27084

$$$$
ChemDiv-C679-4177 MCULE-5594209191 MolPort-007-655-789 PubChem-20874212 ZINC000013367955 ZINC13367955


 26 28  0  0  0  0  0  0  0  0999 V2000
   18.9464   -8.1623    7.7097 C   0  0  0  0  0  0  0  0  0  0  0  0
   17.7625   -8.8140    7.8334 N   0  0  0  0  0  0  0  0  0  0  0  0
   17.5397   -9.2133    9.0832 N   0  0  0  0  0  0  0  0  0  0  0  0
   18.5247   -8.8891    9.9469 C   0  0  0  0  0  0  0  0  0  0  0  0
   19.7727   -8.0597    9.1884 S   0  0  0  0  0  0  0  0  0  0  0  0
   18.4583   -9.2179   11.2601 N   0  0  0  0  0  0  0  0  0  0  0  0
   17.3714   -9.8999   11.7201 C   0  0  0  0  0  0  0  0  0  0  0  0
   16.3267  -10.2432   10.8459 C   0  0  0  0  0  0  0  0  0  0  0  0
   16.4333   -9.8852    9.4974 C   0  0  0  0  0  0  0  0  0  0  0  0
   15.5155  -10.1818    8.6872 O   0  0  0  0  0  0  0  0  0  0  0  0
   18.9301   -6.1972    6.2139 C   0  0  0  0  0  0  0  0  0  0  0  0
   19.4588   -7.6023    6.4252 C   0  0  0  0  0  0  0  0  0  0  0  0
   19.0482   -8.4857    5.2635 C   0  0  0  0  0  0  0  0  0  0  0  0
   17.2699  -10.2435   13.1629 C   0  0  0  0  0  0  0  0  0  0  0  0
   16.4868   -9.2639   13.8321 O   0  0  0  0  0  0  0  0  0  0  0  0
   16.4099   -9.1818   15.2246 C   0  0  0  0  0  0  0  0  0  0  0  0
   17.1115  -10.0698   16.0551 C   0  0  0  0  0  0  0  0  0  0  0  0
   17.0126   -9.9600   17.4442 C   0  0  0  0  0  0  0  0  0  0  0  0
   16.2134   -8.9638   18.0110 C   0  0  0  0  0  0  0  0  0  0  0  0
   15.5087   -8.0720   17.1958 C   0  0  0  0  0  0  0  0  0  0  0  0
   15.6126   -8.1880   15.8012 C   0  0  0  0  0  0  0  0  0  0  0  0
   14.6991   -7.0633   17.8155 N   0  0  0  0  0  0  0  0  0  0  0  0
   13.3494   -7.2101   18.2747 C   0  0  0  0  0  0  0  0  0  0  0  0
   12.6627   -6.0484   18.8965 C   0  0  0  0  0  0  0  0  0  0  0  0
   12.7340   -8.3030   18.1621 O   0  0  0  0  0  0  0  0  0  0  0  0
   15.1132   -6.1785   17.9380 H   0  0  0  0  0  0  0  0  0  0  0  0
 11 12  1  0  0  0
 12 13  1  0  0  0
 12  1  1  0  0  0
  1  2  2  0  0  0
  2  3  1  0  0  0
  3  4  1  0  0  0
  4  5  1  0  0  0
  4  6  2  0  0  0
  5  1  1  0  0  0
  6  7  1  0  0  0
  7 14  1  0  0  0
  7  8  2  0  0  0
 14 15  1  0  0  0
 15 16  1  0  0  0
 16 17  2  0  0  0
 17 18  1  0  0  0
 18 19  2  0  0  0
 19 20  1  0  0  0
 20 22  1  0  0  0
 20 21  2  0  0  0
 22 23  1  0  0  0
 23 24  1  0  0  0
 23 25  2  0  0  0
 21 16  1  0  0  0
  8  9  1  0  0  0
  9 10  2  0  0  0
  9  3  1  0  0  0
 22 26  1  0  0  0
M  END
>  <minimizedAffinity>
-4.81481

>  <minimizedRMSD>
1.61491

$$$$
ChemDiv-D483-1638 MCULE-4425987005 MolPort-007-710-973 PubChem-20899102 ZINC000015859267


 34 37  0  0  0  0  0  0  0  0999 V2000
   17.4081  -11.2477   15.1004 C   0  0  0  0  0  0  0  0  0  0  0  0
   16.7668  -10.0398   14.6057 N   0  0  0  0  0  0  0  0  0  0  0  0
   16.2828   -9.7962   13.3760 C   0  0  0  0  0  0  0  0  0  0  0  0
   15.7539   -8.5593   13.2942 N   0  0  0  0  0  0  0  0  0  0  0  0
   15.8953   -7.9985   14.4881 N   0  0  0  0  0  0  0  0  0  0  0  0
   16.5107   -8.9029   15.2737 C   0  0  0  0  0  0  0  0  0  0  0  0
   16.3509  -10.7519   12.2282 C   0  0  0  0  0  0  0  0  0  0  0  0
   16.7814  -10.0438   10.9749 C   0  0  0  0  0  0  0  0  0  0  0  0
   15.9052   -9.9018    9.8900 C   0  0  0  0  0  0  0  0  0  0  0  0
   14.5274  -10.4729    9.9214 C   0  0  0  0  0  0  0  0  0  0  0  0
   16.3100   -9.2374    8.7805 N   0  0  0  0  0  0  0  0  0  0  0  0
   17.5532   -8.6962    8.6866 C   0  0  0  0  0  0  0  0  0  0  0  0
   18.4376   -8.8184    9.7355 N   0  0  0  0  0  0  0  0  0  0  0  0
   19.6892   -8.2762    9.6468 C   0  0  0  0  0  0  0  0  0  0  0  0
   20.0960   -7.5925    8.5015 C   0  0  0  0  0  0  0  0  0  0  0  0
   19.2111   -7.4627    7.4350 C   0  0  0  0  0  0  0  0  0  0  0  0
   17.9339   -8.0129    7.5187 C   0  0  0  0  0  0  0  0  0  0  0  0
   17.0029   -7.8612    6.3636 C   0  0  0  0  0  0  0  0  0  0  0  0
   18.0653   -9.4841   10.8732 C   0  0  0  0  0  0  0  0  0  0  0  0
   18.8738   -9.6015   11.8374 O   0  0  0  0  0  0  0  0  0  0  0  0
   16.9281   -8.6102   16.9899 S   0  0  0  0  0  0  0  0  0  0  0  0
   15.2158   -8.1408   17.4002 C   0  0  0  0  0  0  0  0  0  0  0  0
   15.0836   -7.5611   18.7737 C   0  0  0  0  0  0  0  0  0  0  0  0
   14.7071   -6.3649   18.8914 O   0  0  0  0  0  0  0  0  0  0  0  0
   15.3827   -8.3383   19.9386 N   0  0  0  0  0  0  0  0  0  0  0  0
   15.7202   -9.2553   19.8184 H   0  0  0  0  0  0  0  0  0  0  0  0
   15.2096   -7.8323   21.2934 C   0  0  0  0  0  0  0  0  0  0  0  0
   14.0524   -6.8939   21.3538 C   0  0  0  0  0  0  0  0  0  0  0  0
   14.2201   -5.6101   21.8841 C   0  0  0  0  0  0  0  0  0  0  0  0
   13.1395   -4.7240   21.9282 C   0  0  0  0  0  0  0  0  0  0  0  0
   11.8905   -5.1200   21.4401 C   0  0  0  0  0  0  0  0  0  0  0  0
   10.5381   -4.0105   21.4952 Cl  0  0  0  0  0  0  0  0  0  0  0  0
   11.7217   -6.4015   20.9071 C   0  0  0  0  0  0  0  0  0  0  0  0
   12.8022   -7.2878   20.8628 C   0  0  0  0  0  0  0  0  0  0  0  0
  1  2  1  0  0  0
  2  3  1  0  0  0
  3  7  1  0  0  0
  7  8  1  0  0  0
  8  9  2  0  0  0
  9 10  1  0  0  0
  9 11  1  0  0  0
 11 12  2  0  0  0
 12 13  1  0  0  0
 13 14  1  0  0  0
 14 15  2  0  0  0
 15 16  1  0  0  0
 16 17  2  0  0  0
 17 18  1  0  0  0
 13 19  1  0  0  0
 19 20  2  0  0  0
  3  4  2  0  0  0
  4  5  1  0  0  0
  5  6  2  0  0  0
  6 21  1  0  0  0
 21 22  1  0  0  0
 22 23  1  0  0  0
 23 24  2  0  0  0
 23 25  1  0  0  0
 25 27  1  0  0  0
 27 28  1  0  0  0
 28 29  2  0  0  0
 29 30  1  0  0  0
 30 31  2  0  0  0
 31 32  1  0  0  0
 31 33  1  0  0  0
 33 34  2  0  0  0
  6  2  1  0  0  0
 34 28  1  0  0  0
 19  8  1  0  0  0
 17 12  1  0  0  0
 25 26  1  0  0  0
M  END
>  <minimizedAffinity>
-4.79571

>  <minimizedRMSD>
2.31975

$$$$
ChemDiv-G357-0536 MCULE-3620630412 MolPort-007-847-230 PubChem-20953011 ZINC000015771634


 34 37  0  0  0  0  0  0  0  0999 V2000
   17.0513   -9.9120   14.6007 C   0  0  0  0  0  0  0  0  0  0  0  0
   17.6271  -10.3565   15.7989 C   0  0  0  0  0  0  0  0  0  0  0  0
   17.2982   -9.7422   17.0106 C   0  0  0  0  0  0  0  0  0  0  0  0
   16.3925   -8.6771   17.0417 C   0  0  0  0  0  0  0  0  0  0  0  0
   15.8134   -8.2341   15.8432 C   0  0  0  0  0  0  0  0  0  0  0  0
   16.1412   -8.8474   14.6311 C   0  0  0  0  0  0  0  0  0  0  0  0
   16.0771   -8.0765   18.3049 N   0  0  0  0  0  0  0  0  0  0  0  0
   14.7713   -7.7376   18.7896 C   0  0  0  0  0  0  0  0  0  0  0  0
   13.7448   -7.9141   18.0816 O   0  0  0  0  0  0  0  0  0  0  0  0
   16.8350   -7.8762   18.9004 H   0  0  0  0  0  0  0  0  0  0  0  0
   14.6231   -7.1771   20.1609 C   0  0  0  0  0  0  0  0  0  0  0  0
   13.1592   -7.8825   20.9819 S   0  0  0  0  0  0  0  0  0  0  0  0
   12.2758   -6.3264   20.9965 C   0  0  0  0  0  0  0  0  0  0  0  0
   12.5397   -5.3811   21.9936 C   0  0  0  0  0  0  0  0  0  0  0  0
   11.8440   -4.1685   22.0096 C   0  0  0  0  0  0  0  0  0  0  0  0
   10.8814   -3.9017   21.0310 C   0  0  0  0  0  0  0  0  0  0  0  0
   10.6128   -4.8484   20.0375 C   0  0  0  0  0  0  0  0  0  0  0  0
   11.3080   -6.0611   20.0215 C   0  0  0  0  0  0  0  0  0  0  0  0
   17.3936  -10.5540   13.3214 C   0  0  0  0  0  0  0  0  0  0  0  0
   17.9699  -11.6771   13.3120 O   0  0  0  0  0  0  0  0  0  0  0  0
   17.0793   -9.9144   12.1204 O   0  0  0  0  0  0  0  0  0  0  0  0
   16.8560  -10.6384   10.9194 C   0  0  0  0  0  0  0  0  0  0  0  0
   17.7318   -8.1301    7.6450 N   0  0  0  0  0  0  0  0  0  0  0  0
   18.1623   -7.3532    6.6542 N   0  0  0  0  0  0  0  0  0  0  0  0
   19.5137   -7.2550    6.6359 C   0  0  0  0  0  0  0  0  0  0  0  0
   20.2373   -8.1664    7.8717 S   0  0  0  0  0  0  0  0  0  0  0  0
   18.7194   -8.6521    8.4025 C   0  0  0  0  0  0  0  0  0  0  0  0
   18.4573   -9.4666    9.4535 N   0  0  0  0  0  0  0  0  0  0  0  0
   17.1623   -9.7710    9.7514 C   0  0  0  0  0  0  0  0  0  0  0  0
   16.1133   -9.2361    8.9855 C   0  0  0  0  0  0  0  0  0  0  0  0
   16.4259   -8.4002    7.9078 C   0  0  0  0  0  0  0  0  0  0  0  0
   15.5083   -7.9081    7.1990 O   0  0  0  0  0  0  0  0  0  0  0  0
   20.2631   -6.4824    5.6091 C   0  0  0  0  0  0  0  0  0  0  0  0
   21.1013   -7.4228    4.7672 C   0  0  0  0  0  0  0  0  0  0  0  0
 23 24  1  0  0  0
 24 25  2  0  0  0
 25 26  1  0  0  0
 26 27  1  0  0  0
 27 28  2  0  0  0
 28 29  1  0  0  0
 29 22  1  0  0  0
 22 21  1  0  0  0
 21 19  1  0  0  0
 19 20  2  0  0  0
 19  1  1  0  0  0
  1  2  2  0  0  0
  2  3  1  0  0  0
  3  4  2  0  0  0
  4  5  1  0  0  0
  5  6  2  0  0  0
  4  7  1  0  0  0
  7  8  1  0  0  0
  8 11  1  0  0  0
 11 12  1  0  0  0
 12 13  1  0  0  0
 13 14  2  0  0  0
 14 15  1  0  0  0
 15 16  2  0  0  0
 16 17  1  0  0  0
 17 18  2  0  0  0
  8  9  2  0  0  0
 29 30  2  0  0  0
 30 31  1  0  0  0
 31 32  2  0  0  0
 25 33  1  0  0  0
 33 34  1  0  0  0
 27 23  1  0  0  0
  6  1  1  0  0  0
 18 13  1  0  0  0
 31 23  1  0  0  0
  7 10  1  0  0  0
M  END
>  <minimizedAffinity>
-4.78777

>  <minimizedRMSD>
1.73693

$$$$
ChemDiv-G756-0775 MCULE-2055210315 MolPort-007-879-401 PubChem-46356213 ZINC000033067907 ZINC33067907


 29 31  0  0  0  0  0  0  0  0999 V2000
   18.5281  -12.3181   14.6194 C   0  0  0  0  0  0  0  0  0  0  0  0
   17.8060  -11.3727   15.5169 C   0  0  0  0  0  0  0  0  0  0  0  0
   17.6982  -11.7350   16.8632 C   0  0  0  0  0  0  0  0  0  0  0  0
   17.0397  -10.9074   17.7729 C   0  0  0  0  0  0  0  0  0  0  0  0
   16.4777   -9.7027   17.3502 C   0  0  0  0  0  0  0  0  0  0  0  0
   16.5826   -9.3345   16.0026 C   0  0  0  0  0  0  0  0  0  0  0  0
   17.2384  -10.1491   15.0723 C   0  0  0  0  0  0  0  0  0  0  0  0
   15.8095   -8.8772   18.3140 N   0  0  0  0  0  0  0  0  0  0  0  0
   14.7841   -7.9052   18.0541 C   0  0  0  0  0  0  0  0  0  0  0  0
   14.3607   -7.7207   16.8795 O   0  0  0  0  0  0  0  0  0  0  0  0
   16.0825   -8.9885   19.2533 H   0  0  0  0  0  0  0  0  0  0  0  0
   14.2015   -7.1269   19.2055 C   0  0  0  0  0  0  0  0  0  0  0  0
   13.3785   -5.9403   18.7285 C   0  0  0  0  0  0  0  0  0  0  0  0
   13.3063   -8.0345   20.0268 C   0  0  0  0  0  0  0  0  0  0  0  0
   15.3190   -6.6071   20.0901 C   0  0  0  0  0  0  0  0  0  0  0  0
   17.2827   -9.6816   13.7488 O   0  0  0  0  0  0  0  0  0  0  0  0
   18.3069   -9.9672   12.8069 C   0  0  0  0  0  0  0  0  0  0  0  0
   17.8109   -9.6941   11.4325 C   0  0  0  0  0  0  0  0  0  0  0  0
   16.5325  -10.0955   11.0617 C   0  0  0  0  0  0  0  0  0  0  0  0
   16.0839   -9.8045    9.7751 C   0  0  0  0  0  0  0  0  0  0  0  0
   14.9259  -10.1730    9.4357 O   0  0  0  0  0  0  0  0  0  0  0  0
   16.8923   -9.1284    8.9002 N   0  0  0  0  0  0  0  0  0  0  0  0
   16.4452   -8.8466    7.6402 C   0  0  0  0  0  0  0  0  0  0  0  0
   17.2491   -8.1582    6.7318 C   0  0  0  0  0  0  0  0  0  0  0  0
   18.5239   -7.7539    7.1188 C   0  0  0  0  0  0  0  0  0  0  0  0
   18.9858   -8.0379    8.4025 C   0  0  0  0  0  0  0  0  0  0  0  0
   20.3549   -7.5957    8.7945 C   0  0  0  0  0  0  0  0  0  0  0  0
   18.1530   -8.7339    9.2954 C   0  0  0  0  0  0  0  0  0  0  0  0
   18.5905   -9.0190   10.5521 N   0  0  0  0  0  0  0  0  0  0  0  0
  1  2  1  0  0  0
  2  3  2  0  0  0
  3  4  1  0  0  0
  4  5  2  0  0  0
  5  8  1  0  0  0
  5  6  1  0  0  0
  8  9  1  0  0  0
  9 10  2  0  0  0
  9 12  1  0  0  0
 12 13  1  0  0  0
 12 14  1  0  0  0
 12 15  1  0  0  0
  6  7  2  0  0  0
  7 16  1  0  0  0
  7  2  1  0  0  0
 16 17  1  0  0  0
 17 18  1  0  0  0
 18 19  2  0  0  0
 19 20  1  0  0  0
 20 21  2  0  0  0
 20 22  1  0  0  0
 22 23  1  0  0  0
 23 24  2  0  0  0
 24 25  1  0  0  0
 25 26  2  0  0  0
 26 27  1  0  0  0
 26 28  1  0  0  0
 28 29  2  0  0  0
 28 22  1  0  0  0
 29 18  1  0  0  0
  8 11  1  0  0  0
M  END
>  <minimizedAffinity>
-4.77943

>  <minimizedRMSD>
1.02434

$$$$
ChemDiv-G756-0570 CHEMBL1315306 MCULE-9503530363 MolPort-007-879-273 PubChem-16030279 ZINC000008831412 ZINC08831412


 33 36  0  0  0  0  0  0  0  0999 V2000
   16.7408   -9.2689   17.2631 C   0  0  0  0  0  0  0  0  0  0  0  0
   16.9614   -9.0145   15.9009 C   0  0  0  0  0  0  0  0  0  0  0  0
   17.5857   -9.9666   15.0887 C   0  0  0  0  0  0  0  0  0  0  0  0
   17.9930  -11.1879   15.6479 C   0  0  0  0  0  0  0  0  0  0  0  0
   17.7760  -11.4478   17.0032 C   0  0  0  0  0  0  0  0  0  0  0  0
   17.1518  -10.4902   17.8067 C   0  0  0  0  0  0  0  0  0  0  0  0
   14.9551   -7.5121   17.8063 C   0  0  0  0  0  0  0  0  0  0  0  0
   14.3944   -7.5839   16.6808 O   0  0  0  0  0  0  0  0  0  0  0  0
   16.1013   -8.3134   18.1196 N   0  0  0  0  0  0  0  0  0  0  0  0
   16.4900   -8.1954   19.0164 H   0  0  0  0  0  0  0  0  0  0  0  0
   14.3982   -6.5991   18.8439 C   0  0  0  0  0  0  0  0  0  0  0  0
   12.9777   -6.5546   18.7506 O   0  0  0  0  0  0  0  0  0  0  0  0
    9.2125   -9.4081   17.4223 C   0  0  0  0  0  0  0  0  0  0  0  0
   10.2924   -9.0664   18.3840 C   0  0  0  0  0  0  0  0  0  0  0  0
   10.4667   -9.8323   19.5401 C   0  0  0  0  0  0  0  0  0  0  0  0
   11.4818   -9.5104   20.4450 C   0  0  0  0  0  0  0  0  0  0  0  0
   12.3228   -8.4229   20.1929 C   0  0  0  0  0  0  0  0  0  0  0  0
   12.1540   -7.6507   19.0316 C   0  0  0  0  0  0  0  0  0  0  0  0
   11.1335   -7.9783   18.1322 C   0  0  0  0  0  0  0  0  0  0  0  0
   17.7878   -9.6749   13.7376 O   0  0  0  0  0  0  0  0  0  0  0  0
   18.0028  -10.6828   12.7585 C   0  0  0  0  0  0  0  0  0  0  0  0
   17.6667  -10.1499   11.4119 C   0  0  0  0  0  0  0  0  0  0  0  0
   16.4210  -10.4102   10.8513 C   0  0  0  0  0  0  0  0  0  0  0  0
   16.1232   -9.8760    9.5994 C   0  0  0  0  0  0  0  0  0  0  0  0
   14.9950  -10.1157    9.0876 O   0  0  0  0  0  0  0  0  0  0  0  0
   17.0450   -9.1042    8.9427 N   0  0  0  0  0  0  0  0  0  0  0  0
   16.7455   -8.5844    7.7150 C   0  0  0  0  0  0  0  0  0  0  0  0
   17.6657   -7.7929    7.0282 C   0  0  0  0  0  0  0  0  0  0  0  0
   18.9051   -7.5308    7.6056 C   0  0  0  0  0  0  0  0  0  0  0  0
   19.2167   -8.0578    8.8573 C   0  0  0  0  0  0  0  0  0  0  0  0
   20.5502   -7.7631    9.4564 C   0  0  0  0  0  0  0  0  0  0  0  0
   18.2693   -8.8530    9.5246 C   0  0  0  0  0  0  0  0  0  0  0  0
   18.5594   -9.3749   10.7475 N   0  0  0  0  0  0  0  0  0  0  0  0
 13 14  1  0  0  0
 14 15  2  0  0  0
 15 16  1  0  0  0
 16 17  2  0  0  0
 17 18  1  0  0  0
 18 12  1  0  0  0
 18 19  2  0  0  0
 12 11  1  0  0  0
 11  7  1  0  0  0
  7  8  2  0  0  0
  7  9  1  0  0  0
  9  1  1  0  0  0
  1  2  2  0  0  0
  2  3  1  0  0  0
  3 20  1  0  0  0
  3  4  2  0  0  0
 20 21  1  0  0  0
 21 22  1  0  0  0
 22 23  2  0  0  0
 23 24  1  0  0  0
 24 25  2  0  0  0
 24 26  1  0  0  0
 26 27  1  0  0  0
 27 28  2  0  0  0
 28 29  1  0  0  0
 29 30  2  0  0  0
 30 31  1  0  0  0
 30 32  1  0  0  0
 32 33  2  0  0  0
 32 26  1  0  0  0
 33 22  1  0  0  0
  4  5  1  0  0  0
  5  6  2  0  0  0
  6  1  1  0  0  0
 19 14  1  0  0  0
  9 10  1  0  0  0
M  END
>  <minimizedAffinity>
-4.76936

>  <minimizedRMSD>
0.88629

$$$$
ChemDiv-D483-1816 MCULE-9820742222 MolPort-007-710-999 PubChem-20899125 ZINC000015859293 ZINC15859293


 34 38  0  0  0  0  0  0  0  0999 V2000
   15.6459   -8.2420   13.8052 C   0  0  0  0  0  0  0  0  0  0  0  0
   16.6310   -9.2647   13.4914 N   0  0  0  0  0  0  0  0  0  0  0  0
   16.7216  -10.0238   12.3863 C   0  0  0  0  0  0  0  0  0  0  0  0
   17.7853  -10.8497   12.4456 N   0  0  0  0  0  0  0  0  0  0  0  0
   18.3886  -10.6204   13.6044 N   0  0  0  0  0  0  0  0  0  0  0  0
   17.6828   -9.6579   14.2285 C   0  0  0  0  0  0  0  0  0  0  0  0
   15.7695   -9.9689   11.2343 C   0  0  0  0  0  0  0  0  0  0  0  0
   16.4979   -9.6666    9.9553 C   0  0  0  0  0  0  0  0  0  0  0  0
   16.2212  -10.3764    8.7774 C   0  0  0  0  0  0  0  0  0  0  0  0
   15.1733  -11.4366    8.7342 C   0  0  0  0  0  0  0  0  0  0  0  0
   16.9106  -10.0957    7.6444 N   0  0  0  0  0  0  0  0  0  0  0  0
   17.8718   -9.1392    7.6189 C   0  0  0  0  0  0  0  0  0  0  0  0
   18.5548   -8.8887    6.4262 C   0  0  0  0  0  0  0  0  0  0  0  0
   19.5431   -7.9070    6.3947 C   0  0  0  0  0  0  0  0  0  0  0  0
   19.8401   -7.1864    7.5493 C   0  0  0  0  0  0  0  0  0  0  0  0
   19.1396   -7.4604    8.7253 C   0  0  0  0  0  0  0  0  0  0  0  0
   18.1698   -8.4235    8.7561 N   0  0  0  0  0  0  0  0  0  0  0  0
   17.4945   -8.6771    9.9201 C   0  0  0  0  0  0  0  0  0  0  0  0
   17.7614   -8.0237   10.9688 O   0  0  0  0  0  0  0  0  0  0  0  0
   18.1094   -8.9953   15.8388 S   0  0  0  0  0  0  0  0  0  0  0  0
   16.5578   -9.5670   16.6002 C   0  0  0  0  0  0  0  0  0  0  0  0
   15.8909   -8.4547   17.3335 C   0  0  0  0  0  0  0  0  0  0  0  0
   15.5298   -7.4297   16.6973 O   0  0  0  0  0  0  0  0  0  0  0  0
   15.6608   -8.5743   18.7438 N   0  0  0  0  0  0  0  0  0  0  0  0
   15.9287   -9.4232   19.1644 H   0  0  0  0  0  0  0  0  0  0  0  0
   15.0808   -7.5851   19.6047 C   0  0  0  0  0  0  0  0  0  0  0  0
   15.6360   -7.3994   20.8911 C   0  0  0  0  0  0  0  0  0  0  0  0
   15.1091   -6.4388   21.7734 C   0  0  0  0  0  0  0  0  0  0  0  0
   14.0274   -5.6845   21.3291 C   0  0  0  0  0  0  0  0  0  0  0  0
   13.3401   -4.6915   21.9982 O   0  0  0  0  0  0  0  0  0  0  0  0
   12.3048   -4.2068   21.1313 C   0  0  0  0  0  0  0  0  0  0  0  0
   12.4365   -4.9770   19.9282 O   0  0  0  0  0  0  0  0  0  0  0  0
   13.4888   -5.8547   20.0958 C   0  0  0  0  0  0  0  0  0  0  0  0
   13.9839   -6.7948   19.1967 C   0  0  0  0  0  0  0  0  0  0  0  0
  1  2  1  0  0  0
  2  3  1  0  0  0
  3  7  1  0  0  0
  3  4  2  0  0  0
  7  8  1  0  0  0
  8  9  2  0  0  0
  9 10  1  0  0  0
  9 11  1  0  0  0
 11 12  2  0  0  0
 12 13  1  0  0  0
 13 14  2  0  0  0
 14 15  1  0  0  0
 15 16  2  0  0  0
 16 17  1  0  0  0
 17 18  1  0  0  0
 17 12  1  0  0  0
 18 19  2  0  0  0
 18  8  1  0  0  0
  4  5  1  0  0  0
  5  6  2  0  0  0
  6 20  1  0  0  0
  6  2  1  0  0  0
 20 21  1  0  0  0
 21 22  1  0  0  0
 22 23  2  0  0  0
 22 24  1  0  0  0
 24 26  1  0  0  0
 26 27  2  0  0  0
 27 28  1  0  0  0
 28 29  2  0  0  0
 29 30  1  0  0  0
 30 31  1  0  0  0
 31 32  1  0  0  0
 32 33  1  0  0  0
 33 34  2  0  0  0
 33 29  1  0  0  0
 34 26  1  0  0  0
 24 25  1  0  0  0
M  END
>  <minimizedAffinity>
-4.76178

>  <minimizedRMSD>
2.73270

$$$$
ChemDiv-D483-1474 MCULE-5926647344 MolPort-007-710-936 PubChem-20899066 ZINC000015859229


 36 40  0  0  0  0  0  0  0  0999 V2000
   16.6939  -10.0867   12.4366 C   0  0  0  0  0  0  0  0  0  0  0  0
   17.7927  -10.8631   12.5179 N   0  0  0  0  0  0  0  0  0  0  0  0
   18.3828  -10.5786   13.6717 N   0  0  0  0  0  0  0  0  0  0  0  0
   17.6319   -9.6353   14.2726 C   0  0  0  0  0  0  0  0  0  0  0  0
   16.5682   -9.3032   13.5214 N   0  0  0  0  0  0  0  0  0  0  0  0
   15.5433   -8.3098   13.8004 C   0  0  0  0  0  0  0  0  0  0  0  0
   15.7592  -10.0829   11.2694 C   0  0  0  0  0  0  0  0  0  0  0  0
   18.1763   -8.4450    8.8651 N   0  0  0  0  0  0  0  0  0  0  0  0
   19.1653   -7.5003    8.8805 C   0  0  0  0  0  0  0  0  0  0  0  0
   19.8626   -7.1738    7.7159 C   0  0  0  0  0  0  0  0  0  0  0  0
   19.5425   -7.8229    6.5254 C   0  0  0  0  0  0  0  0  0  0  0  0
   18.5346   -8.7858    6.5095 C   0  0  0  0  0  0  0  0  0  0  0  0
   17.8551   -9.0895    7.6918 C   0  0  0  0  0  0  0  0  0  0  0  0
   16.8733  -10.0263    7.6710 N   0  0  0  0  0  0  0  0  0  0  0  0
   16.1867  -10.3567    8.7924 C   0  0  0  0  0  0  0  0  0  0  0  0
   15.1150  -11.3918    8.6995 C   0  0  0  0  0  0  0  0  0  0  0  0
   16.4880   -9.7208   10.0066 C   0  0  0  0  0  0  0  0  0  0  0  0
   17.5046   -8.7508   10.0189 C   0  0  0  0  0  0  0  0  0  0  0  0
   17.7922   -8.1618   11.0999 O   0  0  0  0  0  0  0  0  0  0  0  0
   20.2740   -7.4892    5.2756 C   0  0  0  0  0  0  0  0  0  0  0  0
   18.0291   -8.9127   15.8633 S   0  0  0  0  0  0  0  0  0  0  0  0
   16.4963   -9.5288   16.6232 C   0  0  0  0  0  0  0  0  0  0  0  0
   15.8483   -8.4603   17.4325 C   0  0  0  0  0  0  0  0  0  0  0  0
   15.4274   -7.4174   16.8659 O   0  0  0  0  0  0  0  0  0  0  0  0
   15.6989   -8.6494   18.8452 N   0  0  0  0  0  0  0  0  0  0  0  0
   16.0422   -9.4942   19.2162 H   0  0  0  0  0  0  0  0  0  0  0  0
   15.1010   -7.7354   19.7740 C   0  0  0  0  0  0  0  0  0  0  0  0
   15.2607   -7.9704   21.1461 C   0  0  0  0  0  0  0  0  0  0  0  0
   14.6989   -7.1002   22.0864 C   0  0  0  0  0  0  0  0  0  0  0  0
   13.9719   -5.9882   21.6546 C   0  0  0  0  0  0  0  0  0  0  0  0
   13.7829   -5.7613   20.2846 C   0  0  0  0  0  0  0  0  0  0  0  0
   13.0173   -4.6654   19.8756 O   0  0  0  0  0  0  0  0  0  0  0  0
   12.1994   -3.9558   20.8084 C   0  0  0  0  0  0  0  0  0  0  0  0
   12.9253   -3.8179   22.1489 C   0  0  0  0  0  0  0  0  0  0  0  0
   13.4259   -5.0884   22.5740 O   0  0  0  0  0  0  0  0  0  0  0  0
   14.3556   -6.6237   19.3471 C   0  0  0  0  0  0  0  0  0  0  0  0
  8  9  1  0  0  0
  9 10  2  0  0  0
 10 11  1  0  0  0
 11 12  2  0  0  0
 12 13  1  0  0  0
 13 14  2  0  0  0
 14 15  1  0  0  0
 15 16  1  0  0  0
 15 17  2  0  0  0
 17  7  1  0  0  0
  7  1  1  0  0  0
  1  2  2  0  0  0
  2  3  1  0  0  0
  3  4  2  0  0  0
  4 21  1  0  0  0
 21 22  1  0  0  0
 22 23  1  0  0  0
 23 24  2  0  0  0
 23 25  1  0  0  0
 25 27  1  0  0  0
 27 28  2  0  0  0
 28 29  1  0  0  0
 29 30  2  0  0  0
 30 31  1  0  0  0
 31 32  1  0  0  0
 32 33  1  0  0  0
 33 34  1  0  0  0
 34 35  1  0  0  0
 31 36  2  0  0  0
  4  5  1  0  0  0
  5  6  1  0  0  0
 17 18  1  0  0  0
 18 19  2  0  0  0
 11 20  1  0  0  0
 13  8  1  0  0  0
  5  1  1  0  0  0
 18  8  1  0  0  0
 36 27  1  0  0  0
 35 30  1  0  0  0
 25 26  1  0  0  0
M  END
>  <minimizedAffinity>
-4.73945

>  <minimizedRMSD>
1.45097

$$$$
ChemDiv-D483-1817 MCULE-2671611264 MolPort-007-711-000 PubChem-20899126 ZINC000015859294 ZINC15859294


 34 37  0  0  0  0  0  0  0  0999 V2000
   15.5719   -8.9851   13.6082 C   0  0  0  0  0  0  0  0  0  0  0  0
   16.8980   -9.5340   13.8412 N   0  0  0  0  0  0  0  0  0  0  0  0
   17.5795  -10.4208   13.0945 C   0  0  0  0  0  0  0  0  0  0  0  0
   18.7924  -10.6759   13.6250 N   0  0  0  0  0  0  0  0  0  0  0  0
   18.9005   -9.9371   14.7216 N   0  0  0  0  0  0  0  0  0  0  0  0
   17.7482   -9.2492   14.8421 C   0  0  0  0  0  0  0  0  0  0  0  0
   17.0557  -11.0887   11.8614 C   0  0  0  0  0  0  0  0  0  0  0  0
   17.1512  -10.1732   10.6715 C   0  0  0  0  0  0  0  0  0  0  0  0
   16.0400   -9.9491    9.8454 C   0  0  0  0  0  0  0  0  0  0  0  0
   14.7134  -10.5676   10.1356 C   0  0  0  0  0  0  0  0  0  0  0  0
   16.1561   -9.1374    8.7662 N   0  0  0  0  0  0  0  0  0  0  0  0
   17.3282   -8.5276    8.4599 C   0  0  0  0  0  0  0  0  0  0  0  0
   17.3968   -7.7052    7.3322 C   0  0  0  0  0  0  0  0  0  0  0  0
   18.5956   -7.0673    7.0207 C   0  0  0  0  0  0  0  0  0  0  0  0
   19.7132   -7.2576    7.8304 C   0  0  0  0  0  0  0  0  0  0  0  0
   19.6128   -8.0886    8.9465 C   0  0  0  0  0  0  0  0  0  0  0  0
   18.4351   -8.7121    9.2557 N   0  0  0  0  0  0  0  0  0  0  0  0
   18.3578   -9.5225   10.3568 C   0  0  0  0  0  0  0  0  0  0  0  0
   19.3672   -9.6864   11.0994 O   0  0  0  0  0  0  0  0  0  0  0  0
   17.4047   -8.1056   16.1794 S   0  0  0  0  0  0  0  0  0  0  0  0
   15.6158   -8.4417   16.1547 C   0  0  0  0  0  0  0  0  0  0  0  0
   14.9536   -7.8733   17.3621 C   0  0  0  0  0  0  0  0  0  0  0  0
   13.8928   -7.2093   17.2247 O   0  0  0  0  0  0  0  0  0  0  0  0
   15.5312   -8.0920   18.6563 N   0  0  0  0  0  0  0  0  0  0  0  0
   16.3466   -8.6427   18.6895 H   0  0  0  0  0  0  0  0  0  0  0  0
   15.0414   -7.5899   19.9069 C   0  0  0  0  0  0  0  0  0  0  0  0
   15.0593   -8.4300   21.0230 C   0  0  0  0  0  0  0  0  0  0  0  0
   14.5949   -7.9724   22.2592 C   0  0  0  0  0  0  0  0  0  0  0  0
   14.1148   -6.6665   22.3867 C   0  0  0  0  0  0  0  0  0  0  0  0
   14.0923   -5.8087   21.2786 C   0  0  0  0  0  0  0  0  0  0  0  0
   14.5552   -6.2807   20.0421 C   0  0  0  0  0  0  0  0  0  0  0  0
   13.5923   -4.4274   21.4176 C   0  0  0  0  0  0  0  0  0  0  0  0
   12.6440   -3.8490   20.4234 C   0  0  0  0  0  0  0  0  0  0  0  0
   13.9636   -3.7126   22.3866 O   0  0  0  0  0  0  0  0  0  0  0  0
  1  2  1  0  0  0
  2  3  1  0  0  0
  3  7  1  0  0  0
  3  4  2  0  0  0
  7  8  1  0  0  0
  8  9  2  0  0  0
  9 10  1  0  0  0
  9 11  1  0  0  0
 11 12  2  0  0  0
 12 13  1  0  0  0
 13 14  2  0  0  0
 14 15  1  0  0  0
 15 16  2  0  0  0
 16 17  1  0  0  0
 17 18  1  0  0  0
 17 12  1  0  0  0
 18 19  2  0  0  0
 18  8  1  0  0  0
  4  5  1  0  0  0
  5  6  2  0  0  0
  6 20  1  0  0  0
  6  2  1  0  0  0
 20 21  1  0  0  0
 21 22  1  0  0  0
 22 23  2  0  0  0
 22 24  1  0  0  0
 24 26  1  0  0  0
 26 27  2  0  0  0
 27 28  1  0  0  0
 28 29  2  0  0  0
 29 30  1  0  0  0
 30 31  2  0  0  0
 30 32  1  0  0  0
 31 26  1  0  0  0
 32 33  1  0  0  0
 32 34  2  0  0  0
 24 25  1  0  0  0
M  END
>  <minimizedAffinity>
-4.70782

>  <minimizedRMSD>
2.66333

$$$$
ChemDiv-D483-1640 MCULE-2146936109 MolPort-007-710-974 PubChem-20899103 ZINC000015859268


 29 31  0  0  0  0  0  0  0  0999 V2000
   16.4534   -9.6899   13.4012 C   0  0  0  0  0  0  0  0  0  0  0  0
   15.8696   -8.4810   13.2800 N   0  0  0  0  0  0  0  0  0  0  0  0
   15.9438   -7.8951   14.4678 N   0  0  0  0  0  0  0  0  0  0  0  0
   16.5692   -8.7586   15.2908 C   0  0  0  0  0  0  0  0  0  0  0  0
   16.9029   -9.8917   14.6514 N   0  0  0  0  0  0  0  0  0  0  0  0
   17.5685  -11.0661   15.1925 C   0  0  0  0  0  0  0  0  0  0  0  0
   16.5813  -10.6723   12.2807 C   0  0  0  0  0  0  0  0  0  0  0  0
   18.5299   -8.7690    9.6588 N   0  0  0  0  0  0  0  0  0  0  0  0
   19.7627   -8.1971    9.5124 C   0  0  0  0  0  0  0  0  0  0  0  0
   20.1244   -7.5653    8.3229 C   0  0  0  0  0  0  0  0  0  0  0  0
   19.2134   -7.5188    7.2717 C   0  0  0  0  0  0  0  0  0  0  0  0
   17.9550   -8.0998    7.4141 C   0  0  0  0  0  0  0  0  0  0  0  0
   16.9955   -8.0378    6.2744 C   0  0  0  0  0  0  0  0  0  0  0  0
   17.6202   -8.7294    8.6254 C   0  0  0  0  0  0  0  0  0  0  0  0
   16.3959   -9.2998    8.7770 N   0  0  0  0  0  0  0  0  0  0  0  0
   16.0358   -9.9173    9.9283 C   0  0  0  0  0  0  0  0  0  0  0  0
   14.6734  -10.5159   10.0243 C   0  0  0  0  0  0  0  0  0  0  0  0
   16.9388   -9.9744   10.9989 C   0  0  0  0  0  0  0  0  0  0  0  0
   18.2023   -9.3833   10.8384 C   0  0  0  0  0  0  0  0  0  0  0  0
   19.0329   -9.4218   11.7907 O   0  0  0  0  0  0  0  0  0  0  0  0
   16.9044   -8.4218   17.0196 S   0  0  0  0  0  0  0  0  0  0  0  0
   15.1513   -8.5518   17.4933 C   0  0  0  0  0  0  0  0  0  0  0  0
   14.8312   -7.5975   18.5918 C   0  0  0  0  0  0  0  0  0  0  0  0
   13.9679   -6.7000   18.4015 O   0  0  0  0  0  0  0  0  0  0  0  0
   15.4956   -7.7125   19.8524 N   0  0  0  0  0  0  0  0  0  0  0  0
   16.1325   -8.4515   19.9851 H   0  0  0  0  0  0  0  0  0  0  0  0
   15.2685   -6.7815   20.9473 C   0  0  0  0  0  0  0  0  0  0  0  0
   16.5170   -6.6739   21.8019 C   0  0  0  0  0  0  0  0  0  0  0  0
   14.1238   -7.2825   21.8019 C   0  0  0  0  0  0  0  0  0  0  0  0
  8  9  1  0  0  0
  9 10  2  0  0  0
 10 11  1  0  0  0
 11 12  2  0  0  0
 12 13  1  0  0  0
 12 14  1  0  0  0
 14 15  2  0  0  0
 15 16  1  0  0  0
 16 17  1  0  0  0
 16 18  2  0  0  0
 18  7  1  0  0  0
  7  1  1  0  0  0
  1  2  2  0  0  0
  2  3  1  0  0  0
  3  4  2  0  0  0
  4 21  1  0  0  0
 21 22  1  0  0  0
 22 23  1  0  0  0
 23 24  2  0  0  0
 23 25  1  0  0  0
 25 27  1  0  0  0
 27 28  1  0  0  0
 27 29  1  0  0  0
  4  5  1  0  0  0
  5  6  1  0  0  0
 18 19  1  0  0  0
 19 20  2  0  0  0
 14  8  1  0  0  0
  5  1  1  0  0  0
 19  8  1  0  0  0
 25 26  1  0  0  0
M  END
>  <minimizedAffinity>
-4.65193

>  <minimizedRMSD>
2.44812

$$$$
ChemDiv-D483-1781 MCULE-5694400808 MolPort-010-677-218 PubChem-50751154 ZINC000033320751 ZINC33320751


 36 40  0  0  0  0  0  0  0  0999 V2000
   15.7600   -9.8306   14.3494 C   0  0  0  0  0  0  0  0  0  0  0  0
   16.9783  -10.1002   13.6021 N   0  0  0  0  0  0  0  0  0  0  0  0
   17.3061   -9.7007   12.3603 C   0  0  0  0  0  0  0  0  0  0  0  0
   18.5296  -10.1449   12.0109 N   0  0  0  0  0  0  0  0  0  0  0  0
   19.0014  -10.8320   13.0434 N   0  0  0  0  0  0  0  0  0  0  0  0
   18.0550  -10.7974   14.0007 C   0  0  0  0  0  0  0  0  0  0  0  0
   16.4237   -8.9049   11.4490 C   0  0  0  0  0  0  0  0  0  0  0  0
   16.9051   -8.9797   10.0256 C   0  0  0  0  0  0  0  0  0  0  0  0
   16.3437   -9.8993    9.1265 C   0  0  0  0  0  0  0  0  0  0  0  0
   15.2367  -10.8120    9.5329 C   0  0  0  0  0  0  0  0  0  0  0  0
   16.8009   -9.9612    7.8519 N   0  0  0  0  0  0  0  0  0  0  0  0
   17.7940   -9.1475    7.4149 C   0  0  0  0  0  0  0  0  0  0  0  0
   18.2340   -9.2563    6.0933 C   0  0  0  0  0  0  0  0  0  0  0  0
   19.2533   -8.4216    5.6385 C   0  0  0  0  0  0  0  0  0  0  0  0
   19.8228   -7.4894    6.5036 C   0  0  0  0  0  0  0  0  0  0  0  0
   19.3599   -7.4049    7.8182 C   0  0  0  0  0  0  0  0  0  0  0  0
   18.3595   -8.2239    8.2643 N   0  0  0  0  0  0  0  0  0  0  0  0
   17.9234   -8.1278    9.5592 C   0  0  0  0  0  0  0  0  0  0  0  0
   18.4303   -7.2728   10.3408 O   0  0  0  0  0  0  0  0  0  0  0  0
   18.2260  -11.5914   15.5989 S   0  0  0  0  0  0  0  0  0  0  0  0
   16.6923  -10.8530   16.2467 C   0  0  0  0  0  0  0  0  0  0  0  0
   16.9408   -9.4704   16.7446 C   0  0  0  0  0  0  0  0  0  0  0  0
   18.0747   -8.9460   16.5794 O   0  0  0  0  0  0  0  0  0  0  0  0
   15.8947   -8.7483   17.3960 N   0  0  0  0  0  0  0  0  0  0  0  0
   15.0220   -9.1851   17.5257 H   0  0  0  0  0  0  0  0  0  0  0  0
   16.0799   -7.3878   17.8733 C   0  0  0  0  0  0  0  0  0  0  0  0
   15.8744   -7.3452   19.3470 C   0  0  0  0  0  0  0  0  0  0  0  0
   14.8255   -7.9582   19.9578 N   0  0  0  0  0  0  0  0  0  0  0  0
   15.0627   -7.7043   21.2535 C   0  0  0  0  0  0  0  0  0  0  0  0
   14.3012   -8.1019   22.3500 C   0  0  0  0  0  0  0  0  0  0  0  0
   14.7613   -7.7241   23.6267 C   0  0  0  0  0  0  0  0  0  0  0  0
   15.9529   -6.9745   23.7696 C   0  0  0  0  0  0  0  0  0  0  0  0
   16.6983   -6.5923   22.6381 C   0  0  0  0  0  0  0  0  0  0  0  0
   16.2103   -6.9803   21.3914 C   0  0  0  0  0  0  0  0  0  0  0  0
   16.7534   -6.7389   20.1902 N   0  0  0  0  0  0  0  0  0  0  0  0
   17.5786   -6.2478   19.9732 H   0  0  0  0  0  0  0  0  0  0  0  0
  1  2  1  0  0  0
  2  3  1  0  0  0
  3  7  1  0  0  0
  3  4  2  0  0  0
  7  8  1  0  0  0
  8  9  2  0  0  0
  9 10  1  0  0  0
  9 11  1  0  0  0
 11 12  2  0  0  0
 12 13  1  0  0  0
 13 14  2  0  0  0
 14 15  1  0  0  0
 15 16  2  0  0  0
 16 17  1  0  0  0
 17 18  1  0  0  0
 17 12  1  0  0  0
 18 19  2  0  0  0
 18  8  1  0  0  0
  4  5  1  0  0  0
  5  6  2  0  0  0
  6 20  1  0  0  0
  6  2  1  0  0  0
 20 21  1  0  0  0
 21 22  1  0  0  0
 22 23  2  0  0  0
 22 24  1  0  0  0
 24 26  1  0  0  0
 26 27  1  0  0  0
 27 28  2  0  0  0
 28 29  1  0  0  0
 29 30  2  0  0  0
 30 31  1  0  0  0
 31 32  2  0  0  0
 32 33  1  0  0  0
 33 34  2  0  0  0
 34 35  1  0  0  0
 34 29  1  0  0  0
 35 27  1  0  0  0
 24 25  1  0  0  0
 35 36  1  0  0  0
M  END
>  <minimizedAffinity>
-4.61156

>  <minimizedRMSD>
2.71529

$$$$
ChemDiv-5400-0853 MCULE-6671942311 MolPort-000-417-699 PubChem-1078537 ZINC000000792110


 33 36  0  0  0  0  0  0  0  0999 V2000
   19.3239   -8.0641    7.6417 N   0  0  0  0  0  0  0  0  0  0  0  0
   20.2300   -7.6766    8.5350 N   0  0  0  0  0  0  0  0  0  0  0  0
   19.8312   -8.0625    9.7772 C   0  0  0  0  0  0  0  0  0  0  0  0
   18.6161   -8.7034    9.6267 C   0  0  0  0  0  0  0  0  0  0  0  0
   17.7128   -9.2584   10.5213 C   0  0  0  0  0  0  0  0  0  0  0  0
   16.5442   -9.7582   10.0155 N   0  0  0  0  0  0  0  0  0  0  0  0
   16.2687   -9.7063    8.6724 C   0  0  0  0  0  0  0  0  0  0  0  0
   17.1654   -9.1542    7.8001 N   0  0  0  0  0  0  0  0  0  0  0  0
   18.3321   -8.6801    8.3025 C   0  0  0  0  0  0  0  0  0  0  0  0
   19.3971   -7.7564    6.2415 C   0  0  0  0  0  0  0  0  0  0  0  0
   20.2554   -6.7320    5.8180 C   0  0  0  0  0  0  0  0  0  0  0  0
   20.3551   -6.4017    4.4646 C   0  0  0  0  0  0  0  0  0  0  0  0
   19.6021   -7.0996    3.5190 C   0  0  0  0  0  0  0  0  0  0  0  0
   18.7629   -8.1395    3.9246 C   0  0  0  0  0  0  0  0  0  0  0  0
   18.6554   -8.4760    5.2780 C   0  0  0  0  0  0  0  0  0  0  0  0
   17.8064   -9.6441    5.6468 C   0  0  0  0  0  0  0  0  0  0  0  0
   19.7073   -6.7483    2.0791 C   0  0  0  0  0  0  0  0  0  0  0  0
   17.9890   -9.2882   11.9219 N   0  0  0  0  0  0  0  0  0  0  0  0
   18.8732   -8.9945   12.2399 H   0  0  0  0  0  0  0  0  0  0  0  0
   17.0049   -9.7389   12.8934 C   0  0  0  0  0  0  0  0  0  0  0  0
   17.6760   -9.9910   14.2348 C   0  0  0  0  0  0  0  0  0  0  0  0
   16.8638   -9.4388   15.3596 C   0  0  0  0  0  0  0  0  0  0  0  0
   15.9763   -8.3850   15.1191 C   0  0  0  0  0  0  0  0  0  0  0  0
   15.2166   -7.8557   16.1664 C   0  0  0  0  0  0  0  0  0  0  0  0
   15.3459   -8.3746   17.4596 C   0  0  0  0  0  0  0  0  0  0  0  0
   16.2362   -9.4266   17.7012 C   0  0  0  0  0  0  0  0  0  0  0  0
   16.9962   -9.9563   16.6543 C   0  0  0  0  0  0  0  0  0  0  0  0
   14.3831   -7.7186   18.7706 S   0  0  0  0  0  0  0  0  0  0  0  0
   12.7988   -8.4071   18.7325 N   0  0  0  0  0  0  0  0  0  0  0  0
   14.2847   -6.2266   18.6248 O   0  0  0  0  0  0  0  0  0  0  0  0
   15.0256   -8.0538   20.0872 O   0  0  0  0  0  0  0  0  0  0  0  0
   12.3531   -8.1855   17.8422 H   0  0  0  0  0  0  0  0  0  0  0  0
   12.2426   -8.0226   19.4962 H   0  0  0  0  0  0  0  0  0  0  0  0
  1 10  1  0  0  0
 10 11  2  0  0  0
 11 12  1  0  0  0
 12 13  2  0  0  0
 13 14  1  0  0  0
 14 15  2  0  0  0
 15 16  1  0  0  0
 13 17  1  0  0  0
  1  2  1  0  0  0
  2  3  2  0  0  0
  3  4  1  0  0  0
  4  5  2  0  0  0
  5 18  1  0  0  0
 18 20  1  0  0  0
 20 21  1  0  0  0
 21 22  1  0  0  0
 22 23  2  0  0  0
 23 24  1  0  0  0
 24 25  2  0  0  0
 25 26  1  0  0  0
 26 27  2  0  0  0
 25 28  1  0  0  0
 28 29  1  0  0  0
 28 30  2  0  0  0
 28 31  2  0  0  0
  5  6  1  0  0  0
  6  7  2  0  0  0
  7  8  1  0  0  0
  8  9  2  0  0  0
  9  1  1  0  0  0
 15 10  1  0  0  0
  9  4  1  0  0  0
 27 22  1  0  0  0
 18 19  1  0  0  0
 29 32  1  0  0  0
 29 33  1  0  0  0
M  END
>  <minimizedAffinity>
-4.60180

>  <minimizedRMSD>
2.48482

$$$$
ChemDiv-G864-0051 MCULE-6553549449 MolPort-003-082-702 PubChem-24892389 ZINC000022627969


 34 37  0  0  0  0  0  0  0  0999 V2000
   19.3411   -7.9542    7.6380 C   0  0  0  0  0  0  0  0  0  0  0  0
   20.1678   -7.2327    6.8434 N   0  0  0  0  0  0  0  0  0  0  0  0
   19.6870   -7.4787    5.5992 C   0  0  0  0  0  0  0  0  0  0  0  0
   18.5958   -8.3258    5.6109 C   0  0  0  0  0  0  0  0  0  0  0  0
   17.9369   -8.7177    4.4498 C   0  0  0  0  0  0  0  0  0  0  0  0
   18.4281   -8.2128    3.2325 C   0  0  0  0  0  0  0  0  0  0  0  0
   19.5435   -7.3459    3.2091 C   0  0  0  0  0  0  0  0  0  0  0  0
   20.1871   -6.9688    4.4029 C   0  0  0  0  0  0  0  0  0  0  0  0
   18.3877   -8.6211    6.9266 C   0  0  0  0  0  0  0  0  0  0  0  0
   17.4539   -9.4031    7.5106 N   0  0  0  0  0  0  0  0  0  0  0  0
   17.4681   -9.5274    8.8716 C   0  0  0  0  0  0  0  0  0  0  0  0
   18.4237   -8.8701    9.6269 N   0  0  0  0  0  0  0  0  0  0  0  0
   19.3689   -8.0759    9.0201 C   0  0  0  0  0  0  0  0  0  0  0  0
   20.2446   -7.4685    9.6955 O   0  0  0  0  0  0  0  0  0  0  0  0
   20.9308   -6.6682    7.1051 H   0  0  0  0  0  0  0  0  0  0  0  0
   18.4520   -9.0287   11.0799 C   0  0  0  0  0  0  0  0  0  0  0  0
   19.4263  -10.1254   11.4695 C   0  0  0  0  0  0  0  0  0  0  0  0
   16.2161  -10.5666    9.6369 S   0  0  0  0  0  0  0  0  0  0  0  0
   15.5584   -9.1859   10.6300 C   0  0  0  0  0  0  0  0  0  0  0  0
   15.8670   -9.3140   12.0896 C   0  0  0  0  0  0  0  0  0  0  0  0
   15.4747   -8.4043   12.8667 O   0  0  0  0  0  0  0  0  0  0  0  0
   16.5817  -10.4526   12.5939 N   0  0  0  0  0  0  0  0  0  0  0  0
   16.8064  -11.1554   11.9420 H   0  0  0  0  0  0  0  0  0  0  0  0
   17.0027  -10.6745   13.9460 C   0  0  0  0  0  0  0  0  0  0  0  0
   17.9803  -11.6421   14.1962 C   0  0  0  0  0  0  0  0  0  0  0  0
   18.4207  -11.8804   15.5007 C   0  0  0  0  0  0  0  0  0  0  0  0
   17.8848  -11.1488   16.5638 C   0  0  0  0  0  0  0  0  0  0  0  0
   16.9077  -10.1759   16.3313 C   0  0  0  0  0  0  0  0  0  0  0  0
   16.4714   -9.9431   15.0185 C   0  0  0  0  0  0  0  0  0  0  0  0
   16.3818   -9.4442   17.4469 N   0  0  0  0  0  0  0  0  0  0  0  0
   15.6200   -8.2313   17.3933 C   0  0  0  0  0  0  0  0  0  0  0  0
   15.1537   -7.6094   18.6595 C   0  0  0  0  0  0  0  0  0  0  0  0
   15.3382   -7.6823   16.2957 O   0  0  0  0  0  0  0  0  0  0  0  0
   16.5627   -9.8129   18.3417 H   0  0  0  0  0  0  0  0  0  0  0  0
  1  2  1  0  0  0
  2  3  1  0  0  0
  3  4  2  0  0  0
  4  5  1  0  0  0
  5  6  2  0  0  0
  6  7  1  0  0  0
  7  8  2  0  0  0
  4  9  1  0  0  0
  9 10  1  0  0  0
 10 11  2  0  0  0
 11 18  1  0  0  0
 18 19  1  0  0  0
 19 20  1  0  0  0
 20 21  2  0  0  0
 20 22  1  0  0  0
 22 24  1  0  0  0
 24 25  2  0  0  0
 25 26  1  0  0  0
 26 27  2  0  0  0
 27 28  1  0  0  0
 28 29  2  0  0  0
 28 30  1  0  0  0
 30 31  1  0  0  0
 31 32  1  0  0  0
 31 33  2  0  0  0
 11 12  1  0  0  0
 12 16  1  0  0  0
 16 17  1  0  0  0
 12 13  1  0  0  0
 13 14  2  0  0  0
  9  1  2  0  0  0
 29 24  1  0  0  0
 13  1  1  0  0  0
  8  3  1  0  0  0
  2 15  1  0  0  0
 22 23  1  0  0  0
 30 34  1  0  0  0
M  END
>  <minimizedAffinity>
-4.59854

>  <minimizedRMSD>
1.46832

$$$$
ChemDiv-G357-3492 CHEMBL1515772 MCULE-3792526251 MolPort-007-848-007 PubChem-16027671 ZINC000008607842


 32 35  0  0  0  0  0  0  0  0999 V2000
   17.7665  -10.4393   14.2433 C   0  0  0  0  0  0  0  0  0  0  0  0
   18.4814  -11.4446   14.5119 O   0  0  0  0  0  0  0  0  0  0  0  0
   17.0838   -9.7102   15.3240 C   0  0  0  0  0  0  0  0  0  0  0  0
   17.4790   -9.8785   16.6586 C   0  0  0  0  0  0  0  0  0  0  0  0
   16.8262   -9.1837   17.6808 C   0  0  0  0  0  0  0  0  0  0  0  0
   15.7729   -8.3127   17.3845 C   0  0  0  0  0  0  0  0  0  0  0  0
   15.3763   -8.1455   16.0495 C   0  0  0  0  0  0  0  0  0  0  0  0
   16.0278   -8.8395   15.0264 C   0  0  0  0  0  0  0  0  0  0  0  0
   15.1262   -7.6214   18.4615 N   0  0  0  0  0  0  0  0  0  0  0  0
   13.8008   -7.0723   18.4582 C   0  0  0  0  0  0  0  0  0  0  0  0
   13.0740   -7.1416   17.4305 O   0  0  0  0  0  0  0  0  0  0  0  0
   15.6463   -7.5121   19.2902 H   0  0  0  0  0  0  0  0  0  0  0  0
   13.2860   -6.4186   19.6668 C   0  0  0  0  0  0  0  0  0  0  0  0
   11.9833   -5.9857   19.8617 C   0  0  0  0  0  0  0  0  0  0  0  0
   11.7892   -5.3975   21.1202 C   0  0  0  0  0  0  0  0  0  0  0  0
   12.9279   -5.3625   21.9222 C   0  0  0  0  0  0  0  0  0  0  0  0
   14.1757   -6.0716   21.0450 S   0  0  0  0  0  0  0  0  0  0  0  0
   17.6207  -10.0125   12.9216 O   0  0  0  0  0  0  0  0  0  0  0  0
   18.1291  -10.7637   11.8290 C   0  0  0  0  0  0  0  0  0  0  0  0
   17.7151   -8.4799    8.3088 N   0  0  0  0  0  0  0  0  0  0  0  0
   17.7373   -7.7145    7.2203 N   0  0  0  0  0  0  0  0  0  0  0  0
   18.9609   -7.1739    7.0042 C   0  0  0  0  0  0  0  0  0  0  0  0
   20.0871   -7.6501    8.1817 S   0  0  0  0  0  0  0  0  0  0  0  0
   18.9000   -8.5563    8.9507 C   0  0  0  0  0  0  0  0  0  0  0  0
   19.0536   -9.2916   10.0789 N   0  0  0  0  0  0  0  0  0  0  0  0
   17.9854   -9.9779   10.5751 C   0  0  0  0  0  0  0  0  0  0  0  0
   16.7377   -9.9106    9.9329 C   0  0  0  0  0  0  0  0  0  0  0  0
   16.6207   -9.1407    8.7705 C   0  0  0  0  0  0  0  0  0  0  0  0
   15.5172   -9.0638    8.1680 O   0  0  0  0  0  0  0  0  0  0  0  0
   19.2753   -6.2958    5.8414 C   0  0  0  0  0  0  0  0  0  0  0  0
   19.9019   -7.0963    4.7110 C   0  0  0  0  0  0  0  0  0  0  0  0
   21.3979   -7.2369    4.9224 C   0  0  0  0  0  0  0  0  0  0  0  0
 20 21  1  0  0  0
 21 22  2  0  0  0
 22 23  1  0  0  0
 23 24  1  0  0  0
 24 25  2  0  0  0
 25 26  1  0  0  0
 26 19  1  0  0  0
 19 18  1  0  0  0
 18  1  1  0  0  0
  1  2  2  0  0  0
  1  3  1  0  0  0
  3  4  2  0  0  0
  4  5  1  0  0  0
  5  6  2  0  0  0
  6  7  1  0  0  0
  7  8  2  0  0  0
  6  9  1  0  0  0
  9 10  1  0  0  0
 10 11  2  0  0  0
 10 13  1  0  0  0
 13 14  2  0  0  0
 14 15  1  0  0  0
 15 16  2  0  0  0
 16 17  1  0  0  0
 26 27  2  0  0  0
 27 28  1  0  0  0
 28 29  2  0  0  0
 22 30  1  0  0  0
 30 31  1  0  0  0
 31 32  1  0  0  0
 24 20  1  0  0  0
  8  3  1  0  0  0
 17 13  1  0  0  0
 28 20  1  0  0  0
  9 12  1  0  0  0
M  END
>  <minimizedAffinity>
-4.56004

>  <minimizedRMSD>
1.32022

$$$$
ChemDiv-D483-1304 MCULE-5050232862 MolPort-007-710-912 PubChem-20899042 ZINC000015859204 ZINC15859204


 34 37  0  0  0  0  0  0  0  0999 V2000
   15.6614   -8.9894   13.5818 C   0  0  0  0  0  0  0  0  0  0  0  0
   16.9874   -9.5763   13.6889 N   0  0  0  0  0  0  0  0  0  0  0  0
   17.5509  -10.5134   12.9074 C   0  0  0  0  0  0  0  0  0  0  0  0
   18.8055  -10.7958   13.3098 N   0  0  0  0  0  0  0  0  0  0  0  0
   19.0553  -10.0310   14.3644 N   0  0  0  0  0  0  0  0  0  0  0  0
   17.9486   -9.2956   14.5841 C   0  0  0  0  0  0  0  0  0  0  0  0
   16.8761  -11.1792   11.7507 C   0  0  0  0  0  0  0  0  0  0  0  0
   16.8516  -10.2706   10.5537 C   0  0  0  0  0  0  0  0  0  0  0  0
   15.6396   -9.8766    9.9671 C   0  0  0  0  0  0  0  0  0  0  0  0
   14.3250  -10.3080   10.5257 C   0  0  0  0  0  0  0  0  0  0  0  0
   15.6502   -9.0798    8.8705 N   0  0  0  0  0  0  0  0  0  0  0  0
   16.8120   -8.6497    8.3187 C   0  0  0  0  0  0  0  0  0  0  0  0
   16.7684   -7.8318    7.1868 C   0  0  0  0  0  0  0  0  0  0  0  0
   17.9589   -7.3868    6.6152 C   0  0  0  0  0  0  0  0  0  0  0  0
   19.1769   -7.7613    7.1775 C   0  0  0  0  0  0  0  0  0  0  0  0
   20.4545   -7.2946    6.5789 C   0  0  0  0  0  0  0  0  0  0  0  0
   19.1877   -8.5796    8.3083 C   0  0  0  0  0  0  0  0  0  0  0  0
   18.0194   -9.0153    8.8688 N   0  0  0  0  0  0  0  0  0  0  0  0
   18.0504   -9.8183    9.9775 C   0  0  0  0  0  0  0  0  0  0  0  0
   19.1554  -10.1573   10.4899 O   0  0  0  0  0  0  0  0  0  0  0  0
   17.7931   -8.1042   15.9149 S   0  0  0  0  0  0  0  0  0  0  0  0
   16.5427   -9.0886   16.8004 C   0  0  0  0  0  0  0  0  0  0  0  0
   15.6093   -8.2062   17.5559 C   0  0  0  0  0  0  0  0  0  0  0  0
   14.7865   -7.4960   16.9199 O   0  0  0  0  0  0  0  0  0  0  0  0
   15.6619   -8.1818   18.9888 N   0  0  0  0  0  0  0  0  0  0  0  0
   16.3352   -8.7604   19.4144 H   0  0  0  0  0  0  0  0  0  0  0  0
   14.8366   -7.4028   19.8687 C   0  0  0  0  0  0  0  0  0  0  0  0
   15.4351   -6.6585   20.9008 C   0  0  0  0  0  0  0  0  0  0  0  0
   17.1761   -6.6609   21.1284 Cl  0  0  0  0  0  0  0  0  0  0  0  0
   14.6442   -5.8966   21.7670 C   0  0  0  0  0  0  0  0  0  0  0  0
   13.2562   -5.8719   21.6144 C   0  0  0  0  0  0  0  0  0  0  0  0
   12.4210   -5.0609   22.5383 C   0  0  0  0  0  0  0  0  0  0  0  0
   12.6538   -6.6099   20.5937 C   0  0  0  0  0  0  0  0  0  0  0  0
   13.4405   -7.3710   19.7253 C   0  0  0  0  0  0  0  0  0  0  0  0
  1  2  1  0  0  0
  2  3  1  0  0  0
  3  7  1  0  0  0
  3  4  2  0  0  0
  7  8  1  0  0  0
  8  9  2  0  0  0
  9 10  1  0  0  0
  9 11  1  0  0  0
 11 12  2  0  0  0
 12 13  1  0  0  0
 13 14  2  0  0  0
 14 15  1  0  0  0
 15 16  1  0  0  0
 15 17  2  0  0  0
 17 18  1  0  0  0
 18 19  1  0  0  0
 18 12  1  0  0  0
 19 20  2  0  0  0
 19  8  1  0  0  0
  4  5  1  0  0  0
  5  6  2  0  0  0
  6 21  1  0  0  0
  6  2  1  0  0  0
 21 22  1  0  0  0
 22 23  1  0  0  0
 23 24  2  0  0  0
 23 25  1  0  0  0
 25 27  1  0  0  0
 27 28  2  0  0  0
 28 29  1  0  0  0
 28 30  1  0  0  0
 30 31  2  0  0  0
 31 32  1  0  0  0
 31 33  1  0  0  0
 33 34  2  0  0  0
 34 27  1  0  0  0
 25 26  1  0  0  0
M  END
>  <minimizedAffinity>
-4.51252

>  <minimizedRMSD>
2.94196

$$$$
ChemDiv-Y010-1457 CSC028098029 MCULE-2148319229 MolPort-000-417-687 PubChem-1600430 ZINC000001820580 ZINC01820580


 32 35  0  0  0  0  0  0  0  0999 V2000
   17.4498   -9.2178   15.9269 S   0  0  0  0  0  0  0  0  0  0  0  0
   16.5420   -8.9697   14.4063 C   0  0  0  0  0  0  0  0  0  0  0  0
   16.1665   -7.7642   13.9406 N   0  0  0  0  0  0  0  0  0  0  0  0
   15.5260   -7.9917   12.8045 N   0  0  0  0  0  0  0  0  0  0  0  0
   15.5397   -9.3258   12.6266 C   0  0  0  0  0  0  0  0  0  0  0  0
   16.1627   -9.9350   13.6056 O   0  0  0  0  0  0  0  0  0  0  0  0
   14.9349  -10.0151   11.4531 C   0  0  0  0  0  0  0  0  0  0  0  0
   16.0462  -11.3194   10.8406 S   0  0  0  0  0  0  0  0  0  0  0  0
   16.9541  -10.1988    9.7825 C   0  0  0  0  0  0  0  0  0  0  0  0
   16.8237  -10.1824    8.4341 N   0  0  0  0  0  0  0  0  0  0  0  0
   17.6303   -9.2391    7.8865 C   0  0  0  0  0  0  0  0  0  0  0  0
   17.7182   -8.9778    6.5192 C   0  0  0  0  0  0  0  0  0  0  0  0
   18.5958   -7.9706    6.0837 C   0  0  0  0  0  0  0  0  0  0  0  0
   19.3681   -7.2439    7.0110 C   0  0  0  0  0  0  0  0  0  0  0  0
   19.2724   -7.5150    8.3851 C   0  0  0  0  0  0  0  0  0  0  0  0
   18.3952   -8.5173    8.7901 C   0  0  0  0  0  0  0  0  0  0  0  0
   18.0729   -9.0582   10.3446 S   0  0  0  0  0  0  0  0  0  0  0  0
   15.9546   -9.6538   16.8669 C   0  0  0  0  0  0  0  0  0  0  0  0
   15.2271   -8.6512   19.0668 N   0  0  0  0  0  0  0  0  0  0  0  0
   15.4895   -8.4892   17.6692 C   0  0  0  0  0  0  0  0  0  0  0  0
   15.3672   -7.3630   17.1176 O   0  0  0  0  0  0  0  0  0  0  0  0
   15.4183   -9.5258   19.4764 H   0  0  0  0  0  0  0  0  0  0  0  0
   13.3661   -7.1490   19.7975 C   0  0  0  0  0  0  0  0  0  0  0  0
   14.7023   -7.6144   19.9037 C   0  0  0  0  0  0  0  0  0  0  0  0
   15.5645   -7.0318   20.8394 C   0  0  0  0  0  0  0  0  0  0  0  0
   15.1366   -5.9711   21.6389 C   0  0  0  0  0  0  0  0  0  0  0  0
   13.8366   -5.4835   21.5110 C   0  0  0  0  0  0  0  0  0  0  0  0
   12.9582   -6.0717   20.5995 C   0  0  0  0  0  0  0  0  0  0  0  0
   12.3560   -7.7926   18.9292 C   0  0  0  0  0  0  0  0  0  0  0  0
   12.1270   -7.3193   17.7814 O   0  0  0  0  0  0  0  0  0  0  0  0
   10.5347   -9.4275   18.6555 C   0  0  0  0  0  0  0  0  0  0  0  0
   11.6226   -8.8879   19.3905 O   0  0  0  0  0  0  0  0  0  0  0  0
 31 32  1  0  0  0
 32 29  1  0  0  0
 29 30  2  0  0  0
 29 23  1  0  0  0
 23 24  2  0  0  0
 24 19  1  0  0  0
 24 25  1  0  0  0
 19 20  1  0  0  0
 20 21  2  0  0  0
 20 18  1  0  0  0
 18  1  1  0  0  0
  1  2  1  0  0  0
  2  3  2  0  0  0
  3  4  1  0  0  0
  4  5  2  0  0  0
  5  7  1  0  0  0
  5  6  1  0  0  0
  7  8  1  0  0  0
  8  9  1  0  0  0
  9 10  2  0  0  0
 10 11  1  0  0  0
 11 12  2  0  0  0
 12 13  1  0  0  0
 13 14  2  0  0  0
 14 15  1  0  0  0
 15 16  2  0  0  0
 16 17  1  0  0  0
 16 11  1  0  0  0
 17  9  1  0  0  0
  6  2  1  0  0  0
 25 26  2  0  0  0
 26 27  1  0  0  0
 27 28  2  0  0  0
 28 23  1  0  0  0
 19 22  1  0  0  0
M  END
>  <minimizedAffinity>
-4.48020

>  <minimizedRMSD>
1.89051

$$$$
ChemDiv-J106-0619 MolPort-029-883-557 PubChem-75356859


 34 37  0  0  0  0  0  0  0  0999 V2000
   17.5559   -9.4271   16.5251 N   0  0  0  0  0  0  0  0  0  0  0  0
   17.1145   -9.0855   15.2099 C   0  0  0  0  0  0  0  0  0  0  0  0
   16.9645   -7.8771   14.8790 O   0  0  0  0  0  0  0  0  0  0  0  0
   17.7032  -10.3764   16.7408 H   0  0  0  0  0  0  0  0  0  0  0  0
   16.8204  -10.1770   14.2337 C   0  0  0  0  0  0  0  0  0  0  0  0
   16.2549   -9.5911   12.9298 C   0  0  0  0  0  0  0  0  0  0  0  0
   17.2104   -9.9253   11.8931 N   0  0  0  0  0  0  0  0  0  0  0  0
   18.2201  -10.7584   12.4287 C   0  0  0  0  0  0  0  0  0  0  0  0
   19.0867  -11.3387   11.7230 O   0  0  0  0  0  0  0  0  0  0  0  0
   18.0964  -10.9527   13.8851 C   0  0  0  0  0  0  0  0  0  0  0  0
   16.9759   -9.6870   10.5017 C   0  0  0  0  0  0  0  0  0  0  0  0
   15.8592  -10.0865    9.8510 N   0  0  0  0  0  0  0  0  0  0  0  0
   15.9597   -9.7289    8.5737 N   0  0  0  0  0  0  0  0  0  0  0  0
   17.1380   -9.0977    8.4236 C   0  0  0  0  0  0  0  0  0  0  0  0
   17.6494   -8.5284    7.2598 C   0  0  0  0  0  0  0  0  0  0  0  0
   18.8897   -7.8692    7.3497 C   0  0  0  0  0  0  0  0  0  0  0  0
   19.5709   -7.7825    8.5842 C   0  0  0  0  0  0  0  0  0  0  0  0
   19.0265   -8.3666    9.7420 C   0  0  0  0  0  0  0  0  0  0  0  0
   19.6498   -8.2296   10.9369 F   0  0  0  0  0  0  0  0  0  0  0  0
   17.8094   -9.0394    9.6149 C   0  0  0  0  0  0  0  0  0  0  0  0
   15.2939   -9.8957    7.8679 H   0  0  0  0  0  0  0  0  0  0  0  0
   17.7976   -8.4315   17.5609 C   0  0  0  0  0  0  0  0  0  0  0  0
   14.0814   -7.1862   19.3095 C   0  0  0  0  0  0  0  0  0  0  0  0
   15.2569   -7.1594   20.0684 C   0  0  0  0  0  0  0  0  0  0  0  0
   16.4686   -7.5614   19.4987 C   0  0  0  0  0  0  0  0  0  0  0  0
   16.5092   -7.9877   18.1665 C   0  0  0  0  0  0  0  0  0  0  0  0
   15.3347   -8.0138   17.4071 C   0  0  0  0  0  0  0  0  0  0  0  0
   14.1232   -7.6117   17.9770 C   0  0  0  0  0  0  0  0  0  0  0  0
   11.6653   -5.7568   18.8599 N   0  0  0  0  0  0  0  0  0  0  0  0
   12.5631   -6.6691   20.0195 S   0  0  0  0  0  0  0  0  0  0  0  0
   11.7649   -7.8711   20.4400 O   0  0  0  0  0  0  0  0  0  0  0  0
   12.8322   -5.8173   21.2282 O   0  0  0  0  0  0  0  0  0  0  0  0
   10.7826   -5.4563   19.2733 H   0  0  0  0  0  0  0  0  0  0  0  0
   11.4778   -6.3370   18.0423 H   0  0  0  0  0  0  0  0  0  0  0  0
 29 30  1  0  0  0
 30 31  2  0  0  0
 30 32  2  0  0  0
 30 23  1  0  0  0
 23 24  2  0  0  0
 24 25  1  0  0  0
 25 26  2  0  0  0
 26 22  1  0  0  0
 22  1  1  0  0  0
  1  2  1  0  0  0
  2  3  2  0  0  0
  2  5  1  0  0  0
  5  6  1  0  0  0
  6  7  1  0  0  0
  7  8  1  0  0  0
  8  9  2  0  0  0
  8 10  1  0  0  0
  7 11  1  0  0  0
 11 12  2  0  0  0
 12 13  1  0  0  0
 13 14  1  0  0  0
 14 15  2  0  0  0
 15 16  1  0  0  0
 16 17  2  0  0  0
 17 18  1  0  0  0
 18 19  1  0  0  0
 18 20  2  0  0  0
 26 27  1  0  0  0
 27 28  2  0  0  0
 28 23  1  0  0  0
 10  5  1  0  0  0
 20 11  1  0  0  0
 20 14  1  0  0  0
 29 33  1  0  0  0
 29 34  1  0  0  0
  1  4  1  0  0  0
 13 21  1  0  0  0
M  END
>  <minimizedAffinity>
-4.47197

>  <minimizedRMSD>
3.81586

$$$$
ChemDiv-G357-1013 MCULE-4322491492 MolPort-007-847-395 PubChem-20953071 ZINC000015771884


 32 34  0  0  0  0  0  0  0  0999 V2000
   17.6320   -9.7967   13.2623 O   0  0  0  0  0  0  0  0  0  0  0  0
   17.9647  -10.0156   14.6010 C   0  0  0  0  0  0  0  0  0  0  0  0
   18.9511  -10.7440   14.9004 O   0  0  0  0  0  0  0  0  0  0  0  0
   17.1586   -9.3929   15.6633 C   0  0  0  0  0  0  0  0  0  0  0  0
   15.9908   -8.6907   15.3392 C   0  0  0  0  0  0  0  0  0  0  0  0
   15.2217   -8.0989   16.3448 C   0  0  0  0  0  0  0  0  0  0  0  0
   15.6110   -8.2006   17.6885 C   0  0  0  0  0  0  0  0  0  0  0  0
   16.7763   -8.9034   18.0111 C   0  0  0  0  0  0  0  0  0  0  0  0
   17.5466   -9.4959   17.0065 C   0  0  0  0  0  0  0  0  0  0  0  0
   14.8457   -7.6110   18.7482 N   0  0  0  0  0  0  0  0  0  0  0  0
   13.5371   -7.0266   18.6453 C   0  0  0  0  0  0  0  0  0  0  0  0
   12.9687   -6.9272   17.5228 O   0  0  0  0  0  0  0  0  0  0  0  0
   15.2609   -7.6061   19.6409 H   0  0  0  0  0  0  0  0  0  0  0  0
   12.8816   -6.4560   19.8762 C   0  0  0  0  0  0  0  0  0  0  0  0
   11.6705   -5.6098   19.5182 C   0  0  0  0  0  0  0  0  0  0  0  0
   13.8794   -5.5889   20.6177 C   0  0  0  0  0  0  0  0  0  0  0  0
   12.4214   -7.5723   20.7965 C   0  0  0  0  0  0  0  0  0  0  0  0
   18.1554  -10.6025   12.2167 C   0  0  0  0  0  0  0  0  0  0  0  0
   17.5257   -8.6332    8.5419 N   0  0  0  0  0  0  0  0  0  0  0  0
   17.4800   -7.9639    7.3926 N   0  0  0  0  0  0  0  0  0  0  0  0
   18.6725   -7.3980    7.0863 C   0  0  0  0  0  0  0  0  0  0  0  0
   19.8574   -7.7326    8.2549 S   0  0  0  0  0  0  0  0  0  0  0  0
   18.7344   -8.6116    9.1421 C   0  0  0  0  0  0  0  0  0  0  0  0
   18.9571   -9.2452   10.3194 N   0  0  0  0  0  0  0  0  0  0  0  0
   17.9357   -9.9273   10.9105 C   0  0  0  0  0  0  0  0  0  0  0  0
   16.6647   -9.9600   10.3132 C   0  0  0  0  0  0  0  0  0  0  0  0
   16.4758   -9.2937    9.0975 C   0  0  0  0  0  0  0  0  0  0  0  0
   15.3493   -9.3083    8.5338 O   0  0  0  0  0  0  0  0  0  0  0  0
   18.9154   -6.6281    5.8330 C   0  0  0  0  0  0  0  0  0  0  0  0
   19.8946   -7.3609    4.9304 C   0  0  0  0  0  0  0  0  0  0  0  0
   19.2240   -8.5530    4.2737 C   0  0  0  0  0  0  0  0  0  0  0  0
   20.2089   -9.2420    3.3536 C   0  0  0  0  0  0  0  0  0  0  0  0
 19 20  1  0  0  0
 20 21  2  0  0  0
 21 22  1  0  0  0
 22 23  1  0  0  0
 23 24  2  0  0  0
 24 25  1  0  0  0
 25 18  1  0  0  0
 18  1  1  0  0  0
  1  2  1  0  0  0
  2  3  2  0  0  0
  2  4  1  0  0  0
  4  5  2  0  0  0
  5  6  1  0  0  0
  6  7  2  0  0  0
  7  8  1  0  0  0
  8  9  2  0  0  0
  7 10  1  0  0  0
 10 11  1  0  0  0
 11 12  2  0  0  0
 11 14  1  0  0  0
 14 15  1  0  0  0
 14 16  1  0  0  0
 14 17  1  0  0  0
 25 26  2  0  0  0
 26 27  1  0  0  0
 27 28  2  0  0  0
 21 29  1  0  0  0
 29 30  1  0  0  0
 30 31  1  0  0  0
 31 32  1  0  0  0
 23 19  1  0  0  0
  9  4  1  0  0  0
 27 19  1  0  0  0
 10 13  1  0  0  0
M  END
>  <minimizedAffinity>
-4.46654

>  <minimizedRMSD>
1.54409

$$$$
ChemDiv-D483-1551 MCULE-5624679848 MolPort-007-710-948 PubChem-20899078 ZINC000015859241


 33 36  0  0  0  0  0  0  0  0999 V2000
   17.3306  -10.4492   13.2506 C   0  0  0  0  0  0  0  0  0  0  0  0
   18.4222  -10.8427   13.9369 N   0  0  0  0  0  0  0  0  0  0  0  0
   18.5482  -10.0185   14.9688 N   0  0  0  0  0  0  0  0  0  0  0  0
   17.5316   -9.1384   14.8918 C   0  0  0  0  0  0  0  0  0  0  0  0
   16.7502   -9.3829   13.8268 N   0  0  0  0  0  0  0  0  0  0  0  0
   15.5525   -8.6717   13.4091 C   0  0  0  0  0  0  0  0  0  0  0  0
   16.8426  -11.1152   12.0037 C   0  0  0  0  0  0  0  0  0  0  0  0
   18.5094   -8.8059    9.5171 N   0  0  0  0  0  0  0  0  0  0  0  0
   19.7274   -8.2172    9.3222 C   0  0  0  0  0  0  0  0  0  0  0  0
   19.9526   -7.3771    8.2321 C   0  0  0  0  0  0  0  0  0  0  0  0
   18.9188   -7.1373    7.3316 C   0  0  0  0  0  0  0  0  0  0  0  0
   17.6746   -7.7341    7.5243 C   0  0  0  0  0  0  0  0  0  0  0  0
   16.5819   -7.4625    6.5466 C   0  0  0  0  0  0  0  0  0  0  0  0
   17.4787   -8.5759    8.6328 C   0  0  0  0  0  0  0  0  0  0  0  0
   16.2697   -9.1642    8.8318 N   0  0  0  0  0  0  0  0  0  0  0  0
   16.0408   -9.9808    9.8888 C   0  0  0  0  0  0  0  0  0  0  0  0
   14.6906  -10.5955   10.0395 C   0  0  0  0  0  0  0  0  0  0  0  0
   17.0691  -10.2353   10.8068 C   0  0  0  0  0  0  0  0  0  0  0  0
   18.3168   -9.6261   10.5971 C   0  0  0  0  0  0  0  0  0  0  0  0
   19.2593   -9.8417   11.4116 O   0  0  0  0  0  0  0  0  0  0  0  0
   17.2669   -7.8181   16.0714 S   0  0  0  0  0  0  0  0  0  0  0  0
   16.0259   -8.7886   16.9874 C   0  0  0  0  0  0  0  0  0  0  0  0
   15.2883   -7.9794   18.0083 C   0  0  0  0  0  0  0  0  0  0  0  0
   14.4624   -7.1183   17.6062 O   0  0  0  0  0  0  0  0  0  0  0  0
   15.5156   -8.1794   19.4123 N   0  0  0  0  0  0  0  0  0  0  0  0
   16.1749   -8.8681   19.6577 H   0  0  0  0  0  0  0  0  0  0  0  0
   14.8837   -7.4821   20.4943 C   0  0  0  0  0  0  0  0  0  0  0  0
   13.4907   -7.4817   20.6664 C   0  0  0  0  0  0  0  0  0  0  0  0
   12.9105   -6.7903   21.7338 C   0  0  0  0  0  0  0  0  0  0  0  0
   13.7190   -6.0946   22.6366 C   0  0  0  0  0  0  0  0  0  0  0  0
   15.1066   -6.0908   22.4715 C   0  0  0  0  0  0  0  0  0  0  0  0
   15.6855   -6.7827   21.4034 C   0  0  0  0  0  0  0  0  0  0  0  0
   13.1578   -5.4244   23.6712 F   0  0  0  0  0  0  0  0  0  0  0  0
  8  9  1  0  0  0
  9 10  2  0  0  0
 10 11  1  0  0  0
 11 12  2  0  0  0
 12 13  1  0  0  0
 12 14  1  0  0  0
 14 15  2  0  0  0
 15 16  1  0  0  0
 16 17  1  0  0  0
 16 18  2  0  0  0
 18  7  1  0  0  0
  7  1  1  0  0  0
  1  2  2  0  0  0
  2  3  1  0  0  0
  3  4  2  0  0  0
  4 21  1  0  0  0
 21 22  1  0  0  0
 22 23  1  0  0  0
 23 24  2  0  0  0
 23 25  1  0  0  0
 25 27  1  0  0  0
 27 28  2  0  0  0
 28 29  1  0  0  0
 29 30  2  0  0  0
 30 31  1  0  0  0
 31 32  2  0  0  0
 30 33  1  0  0  0
  4  5  1  0  0  0
  5  6  1  0  0  0
 18 19  1  0  0  0
 19 20  2  0  0  0
 14  8  1  0  0  0
  5  1  1  0  0  0
 19  8  1  0  0  0
 32 27  1  0  0  0
 25 26  1  0  0  0
M  END
>  <minimizedAffinity>
-4.45441

>  <minimizedRMSD>
1.73460

$$$$
ChemDiv-D483-1229 MCULE-5226739593 MolPort-007-710-895 PubChem-20899025 ZINC000015859184 ZINC15859184


 34 37  0  0  0  0  0  0  0  0999 V2000
   17.9600  -10.2824   13.5704 C   0  0  0  0  0  0  0  0  0  0  0  0
   18.6748  -10.8198   12.5631 N   0  0  0  0  0  0  0  0  0  0  0  0
   18.3382  -10.1644   11.4601 N   0  0  0  0  0  0  0  0  0  0  0  0
   17.4247   -9.2395   11.8159 C   0  0  0  0  0  0  0  0  0  0  0  0
   17.1648   -9.2916   13.1337 N   0  0  0  0  0  0  0  0  0  0  0  0
   16.2603   -8.4584   13.9104 C   0  0  0  0  0  0  0  0  0  0  0  0
   18.0698  -10.8316   15.2734 S   0  0  0  0  0  0  0  0  0  0  0  0
   16.3231  -10.4599   15.6196 C   0  0  0  0  0  0  0  0  0  0  0  0
   14.9263   -8.9166   17.0463 N   0  0  0  0  0  0  0  0  0  0  0  0
   16.2126   -9.4523   16.7099 C   0  0  0  0  0  0  0  0  0  0  0  0
   17.2517   -9.0939   17.3247 O   0  0  0  0  0  0  0  0  0  0  0  0
   14.1681   -9.2033   16.4876 H   0  0  0  0  0  0  0  0  0  0  0  0
   15.1396   -7.0014   20.2723 C   0  0  0  0  0  0  0  0  0  0  0  0
   13.9829   -6.2130   20.1673 C   0  0  0  0  0  0  0  0  0  0  0  0
   13.1559   -6.3214   19.0477 C   0  0  0  0  0  0  0  0  0  0  0  0
   13.4799   -7.2168   18.0253 C   0  0  0  0  0  0  0  0  0  0  0  0
   14.6313   -8.0056   18.1135 C   0  0  0  0  0  0  0  0  0  0  0  0
   15.4564   -7.8928   19.2430 C   0  0  0  0  0  0  0  0  0  0  0  0
   15.6162   -6.2576   22.5840 C   0  0  0  0  0  0  0  0  0  0  0  0
   15.9871   -6.9188   21.3811 O   0  0  0  0  0  0  0  0  0  0  0  0
   16.7781   -8.2937   10.8544 C   0  0  0  0  0  0  0  0  0  0  0  0
   17.2377   -8.5631    9.4485 C   0  0  0  0  0  0  0  0  0  0  0  0
   16.6487   -9.5745    8.6760 C   0  0  0  0  0  0  0  0  0  0  0  0
   15.5259  -10.4032    9.2018 C   0  0  0  0  0  0  0  0  0  0  0  0
   17.0934   -9.8056    7.4162 N   0  0  0  0  0  0  0  0  0  0  0  0
   18.1035   -9.0780    6.8767 C   0  0  0  0  0  0  0  0  0  0  0  0
   18.5265   -9.3563    5.5747 C   0  0  0  0  0  0  0  0  0  0  0  0
   19.5611   -8.6086    5.0147 C   0  0  0  0  0  0  0  0  0  0  0  0
   20.1608   -7.5944    5.7569 C   0  0  0  0  0  0  0  0  0  0  0  0
   21.2635   -6.7893    5.1731 C   0  0  0  0  0  0  0  0  0  0  0  0
   19.7163   -7.3406    7.0549 C   0  0  0  0  0  0  0  0  0  0  0  0
   18.7019   -8.0746    7.6039 N   0  0  0  0  0  0  0  0  0  0  0  0
   18.2786   -7.8098    8.8794 C   0  0  0  0  0  0  0  0  0  0  0  0
   18.8171   -6.8847    9.5509 O   0  0  0  0  0  0  0  0  0  0  0  0
 19 20  1  0  0  0
 20 13  1  0  0  0
 13 14  2  0  0  0
 14 15  1  0  0  0
 15 16  2  0  0  0
 16 17  1  0  0  0
 17  9  1  0  0  0
 17 18  2  0  0  0
  9 10  1  0  0  0
 10 11  2  0  0  0
 10  8  1  0  0  0
  8  7  1  0  0  0
  7  1  1  0  0  0
  1  2  2  0  0  0
  2  3  1  0  0  0
  3  4  2  0  0  0
  4 21  1  0  0  0
  4  5  1  0  0  0
 21 22  1  0  0  0
 22 23  2  0  0  0
 23 24  1  0  0  0
 23 25  1  0  0  0
 25 26  2  0  0  0
 26 27  1  0  0  0
 27 28  2  0  0  0
 28 29  1  0  0  0
 29 30  1  0  0  0
 29 31  2  0  0  0
 31 32  1  0  0  0
 32 33  1  0  0  0
 32 26  1  0  0  0
 33 34  2  0  0  0
 33 22  1  0  0  0
  5  6  1  0  0  0
  5  1  1  0  0  0
 18 13  1  0  0  0
  9 12  1  0  0  0
M  END
>  <minimizedAffinity>
-4.42833

>  <minimizedRMSD>
2.71134

$$$$
ChemDiv-J052-1781 MCULE-8499517726 MolPort-007-898-467 PubChem-46367468 ZINC000021723565 ZINC21723565


 33 36  0  0  0  0  0  0  0  0999 V2000
   16.2010   -9.3680   10.1992 N   0  0  0  0  0  0  0  0  0  0  0  0
   17.6270   -9.4499   10.2879 C   0  0  0  0  0  0  0  0  0  0  0  0
   18.1586  -10.1126   11.2207 O   0  0  0  0  0  0  0  0  0  0  0  0
   15.8042   -8.8945    9.4327 H   0  0  0  0  0  0  0  0  0  0  0  0
   18.4846   -8.7701    9.2932 C   0  0  0  0  0  0  0  0  0  0  0  0
   19.6069   -8.0305    9.7150 C   0  0  0  0  0  0  0  0  0  0  0  0
   20.4342   -7.3743    8.7854 C   0  0  0  0  0  0  0  0  0  0  0  0
   20.1371   -7.4569    7.4195 C   0  0  0  0  0  0  0  0  0  0  0  0
   19.0488   -8.1764    7.0460 N   0  0  0  0  0  0  0  0  0  0  0  0
   18.5088   -8.4384    5.8392 C   0  0  0  0  0  0  0  0  0  0  0  0
   17.4069   -9.2115    5.9779 N   0  0  0  0  0  0  0  0  0  0  0  0
   17.2394   -9.4462    7.2755 N   0  0  0  0  0  0  0  0  0  0  0  0
   18.2434   -8.8120    7.9107 C   0  0  0  0  0  0  0  0  0  0  0  0
   19.0152   -7.9679    4.5313 C   0  0  0  0  0  0  0  0  0  0  0  0
   20.0483   -7.0232    4.4453 C   0  0  0  0  0  0  0  0  0  0  0  0
   20.5132   -6.5910    3.2000 C   0  0  0  0  0  0  0  0  0  0  0  0
   19.9479   -7.1007    2.0285 C   0  0  0  0  0  0  0  0  0  0  0  0
   20.3978   -6.6825    0.8214 F   0  0  0  0  0  0  0  0  0  0  0  0
   18.9183   -8.0422    2.1027 C   0  0  0  0  0  0  0  0  0  0  0  0
   18.4545   -8.4734    3.3490 C   0  0  0  0  0  0  0  0  0  0  0  0
   15.3103   -9.9537   11.1918 C   0  0  0  0  0  0  0  0  0  0  0  0
   17.0045   -9.5204   15.1105 C   0  0  0  0  0  0  0  0  0  0  0  0
   16.2663   -8.4739   14.5462 C   0  0  0  0  0  0  0  0  0  0  0  0
   15.7092   -8.6164   13.2721 C   0  0  0  0  0  0  0  0  0  0  0  0
   15.8887   -9.8066   12.5582 C   0  0  0  0  0  0  0  0  0  0  0  0
   16.6323  -10.8503   13.1188 C   0  0  0  0  0  0  0  0  0  0  0  0
   17.1892  -10.7074   14.3930 C   0  0  0  0  0  0  0  0  0  0  0  0
   17.9979  -10.8930   17.3991 N   0  0  0  0  0  0  0  0  0  0  0  0
   17.7136   -9.3367   16.7041 S   0  0  0  0  0  0  0  0  0  0  0  0
   19.0137   -8.5922   16.5936 O   0  0  0  0  0  0  0  0  0  0  0  0
   16.7716   -8.5741   17.5927 O   0  0  0  0  0  0  0  0  0  0  0  0
   18.4101  -10.7815   18.3254 H   0  0  0  0  0  0  0  0  0  0  0  0
   18.6370  -11.4196   16.8036 H   0  0  0  0  0  0  0  0  0  0  0  0
 28 29  1  0  0  0
 29 30  2  0  0  0
 29 31  2  0  0  0
 29 22  1  0  0  0
 22 23  2  0  0  0
 23 24  1  0  0  0
 24 25  2  0  0  0
 25 21  1  0  0  0
 25 26  1  0  0  0
 21  1  1  0  0  0
  1  2  1  0  0  0
  2  3  2  0  0  0
  2  5  1  0  0  0
  5  6  2  0  0  0
  6  7  1  0  0  0
  7  8  2  0  0  0
  8  9  1  0  0  0
  9 10  1  0  0  0
 10 11  2  0  0  0
 10 14  1  0  0  0
 11 12  1  0  0  0
 12 13  2  0  0  0
 13  5  1  0  0  0
 13  9  1  0  0  0
 14 15  2  0  0  0
 15 16  1  0  0  0
 16 17  2  0  0  0
 17 18  1  0  0  0
 17 19  1  0  0  0
 19 20  2  0  0  0
 20 14  1  0  0  0
 26 27  2  0  0  0
 27 22  1  0  0  0
 28 32  1  0  0  0
 28 33  1  0  0  0
  1  4  1  0  0  0
M  END
>  <minimizedAffinity>
-4.41615

>  <minimizedRMSD>
3.02645

$$$$
ChemDiv-D483-1223 MCULE-9364897174 MolPort-007-710-893 PubChem-20899023 ZINC000015859182 ZINC15859182


 33 36  0  0  0  0  0  0  0  0999 V2000
   16.0602   -8.4120   13.6226 C   0  0  0  0  0  0  0  0  0  0  0  0
   17.0472   -9.2071   12.9094 N   0  0  0  0  0  0  0  0  0  0  0  0
   17.4353   -9.1003   11.6274 C   0  0  0  0  0  0  0  0  0  0  0  0
   18.3924  -10.0014   11.3288 N   0  0  0  0  0  0  0  0  0  0  0  0
   18.6245  -10.6988   12.4331 N   0  0  0  0  0  0  0  0  0  0  0  0
   17.8064  -10.2083   13.3840 C   0  0  0  0  0  0  0  0  0  0  0  0
   16.8817   -8.1141   10.6487 C   0  0  0  0  0  0  0  0  0  0  0  0
   17.3453   -8.4296    9.2547 C   0  0  0  0  0  0  0  0  0  0  0  0
   16.7600   -9.4662    8.5125 C   0  0  0  0  0  0  0  0  0  0  0  0
   15.6344  -10.2770    9.0596 C   0  0  0  0  0  0  0  0  0  0  0  0
   17.2149   -9.7414    7.2654 N   0  0  0  0  0  0  0  0  0  0  0  0
   18.2321   -9.0361    6.7110 C   0  0  0  0  0  0  0  0  0  0  0  0
   18.6652   -9.3601    5.4228 C   0  0  0  0  0  0  0  0  0  0  0  0
   19.7100   -8.6388    4.8483 C   0  0  0  0  0  0  0  0  0  0  0  0
   20.3099   -7.6046    5.5629 C   0  0  0  0  0  0  0  0  0  0  0  0
   21.4249   -6.8271    4.9628 C   0  0  0  0  0  0  0  0  0  0  0  0
   19.8549   -7.3047    6.8477 C   0  0  0  0  0  0  0  0  0  0  0  0
   18.8300   -8.0127    7.4108 N   0  0  0  0  0  0  0  0  0  0  0  0
   18.3979   -7.7036    8.6729 C   0  0  0  0  0  0  0  0  0  0  0  0
   18.9407   -6.7645    9.3218 O   0  0  0  0  0  0  0  0  0  0  0  0
   17.7525  -10.8251   15.0665 S   0  0  0  0  0  0  0  0  0  0  0  0
   16.0774  -10.1760   15.3608 C   0  0  0  0  0  0  0  0  0  0  0  0
   16.0151   -9.4520   16.6614 C   0  0  0  0  0  0  0  0  0  0  0  0
   16.9595   -9.5851   17.4838 O   0  0  0  0  0  0  0  0  0  0  0  0
   14.8913   -8.6093   16.9493 N   0  0  0  0  0  0  0  0  0  0  0  0
   14.2125   -8.5215   16.2416 H   0  0  0  0  0  0  0  0  0  0  0  0
   14.6543   -7.8814   18.1617 C   0  0  0  0  0  0  0  0  0  0  0  0
   15.5931   -7.9716   19.1956 C   0  0  0  0  0  0  0  0  0  0  0  0
   15.3991   -7.2725   20.3909 C   0  0  0  0  0  0  0  0  0  0  0  0
   14.2627   -6.4766   20.5584 C   0  0  0  0  0  0  0  0  0  0  0  0
   14.0564   -5.7335   21.8286 C   0  0  0  0  0  0  0  0  0  0  0  0
   13.3209   -6.3793   19.5308 C   0  0  0  0  0  0  0  0  0  0  0  0
   13.5161   -7.0787   18.3363 C   0  0  0  0  0  0  0  0  0  0  0  0
  1  2  1  0  0  0
  2  3  1  0  0  0
  3  7  1  0  0  0
  3  4  2  0  0  0
  7  8  1  0  0  0
  8  9  2  0  0  0
  9 10  1  0  0  0
  9 11  1  0  0  0
 11 12  2  0  0  0
 12 13  1  0  0  0
 13 14  2  0  0  0
 14 15  1  0  0  0
 15 16  1  0  0  0
 15 17  2  0  0  0
 17 18  1  0  0  0
 18 19  1  0  0  0
 18 12  1  0  0  0
 19 20  2  0  0  0
 19  8  1  0  0  0
  4  5  1  0  0  0
  5  6  2  0  0  0
  6 21  1  0  0  0
  6  2  1  0  0  0
 21 22  1  0  0  0
 22 23  1  0  0  0
 23 24  2  0  0  0
 23 25  1  0  0  0
 25 27  1  0  0  0
 27 28  2  0  0  0
 28 29  1  0  0  0
 29 30  2  0  0  0
 30 31  1  0  0  0
 30 32  1  0  0  0
 32 33  2  0  0  0
 33 27  1  0  0  0
 25 26  1  0  0  0
M  END
>  <minimizedAffinity>
-4.41608

>  <minimizedRMSD>
2.61373

$$$$
ChemDiv-3652-0165 MCULE-1832835691 MolPort-002-557-532 PubChem-9660576


 32 34  0  0  0  0  0  0  0  0999 V2000
   17.4993  -10.7861   12.5195 N   0  0  0  0  0  0  0  0  0  0  0  0
   16.2893  -10.3323   12.3876 C   0  0  0  0  0  0  0  0  0  0  0  0
   15.4688  -10.1096   13.5319 N   0  0  0  0  0  0  0  0  0  0  0  0
   15.8182  -10.2993   14.4325 H   0  0  0  0  0  0  0  0  0  0  0  0
   14.5528   -9.7661   13.4215 H   0  0  0  0  0  0  0  0  0  0  0  0
   18.2321  -11.1544   14.0475 S   0  0  0  0  0  0  0  0  0  0  0  0
   19.6993  -10.8387   13.9818 O   0  0  0  0  0  0  0  0  0  0  0  0
   18.0607  -12.6192   14.3398 O   0  0  0  0  0  0  0  0  0  0  0  0
   16.3106   -8.6347   17.3292 C   0  0  0  0  0  0  0  0  0  0  0  0
   16.6976   -8.0464   16.1153 C   0  0  0  0  0  0  0  0  0  0  0  0
   17.2870   -8.8197   15.1116 C   0  0  0  0  0  0  0  0  0  0  0  0
   17.4940  -10.1878   15.3122 C   0  0  0  0  0  0  0  0  0  0  0  0
   17.1116  -10.7787   16.5207 C   0  0  0  0  0  0  0  0  0  0  0  0
   16.5222  -10.0040   17.5239 C   0  0  0  0  0  0  0  0  0  0  0  0
   13.8929   -6.6196   19.6053 C   0  0  0  0  0  0  0  0  0  0  0  0
   14.3517   -7.3980   18.4258 C   0  0  0  0  0  0  0  0  0  0  0  0
   13.5458   -7.6259   17.4854 O   0  0  0  0  0  0  0  0  0  0  0  0
   15.7027   -7.8740   18.3822 N   0  0  0  0  0  0  0  0  0  0  0  0
   16.2725   -7.6563   19.1550 H   0  0  0  0  0  0  0  0  0  0  0  0
   15.7519  -10.0465   11.0899 N   0  0  0  0  0  0  0  0  0  0  0  0
   14.7771  -10.1353   10.9846 H   0  0  0  0  0  0  0  0  0  0  0  0
   16.4920   -9.6443    9.9304 C   0  0  0  0  0  0  0  0  0  0  0  0
   16.1174  -10.1130    8.7103 N   0  0  0  0  0  0  0  0  0  0  0  0
   16.7816   -9.7625    7.5775 C   0  0  0  0  0  0  0  0  0  0  0  0
   16.3177  -10.3138    6.2704 C   0  0  0  0  0  0  0  0  0  0  0  0
   17.8813   -8.8955    7.6614 C   0  0  0  0  0  0  0  0  0  0  0  0
   18.6089   -8.4951    6.5309 C   0  0  0  0  0  0  0  0  0  0  0  0
   19.6973   -7.6284    6.6691 C   0  0  0  0  0  0  0  0  0  0  0  0
   20.0641   -7.1581    7.9339 C   0  0  0  0  0  0  0  0  0  0  0  0
   19.3442   -7.5525    9.0657 C   0  0  0  0  0  0  0  0  0  0  0  0
   18.2551   -8.4187    8.9348 C   0  0  0  0  0  0  0  0  0  0  0  0
   17.5558   -8.8017   10.0327 N   0  0  0  0  0  0  0  0  0  0  0  0
 15 16  1  0  0  0
 16 17  2  0  0  0
 16 18  1  0  0  0
 18  9  1  0  0  0
  9 10  2  0  0  0
 10 11  1  0  0  0
 11 12  2  0  0  0
 12 13  1  0  0  0
 12  6  1  0  0  0
 13 14  2  0  0  0
 14  9  1  0  0  0
  6  7  2  0  0  0
  6  8  2  0  0  0
  6  1  1  0  0  0
  1  2  2  0  0  0
  2  3  1  0  0  0
  2 20  1  0  0  0
 20 22  1  0  0  0
 22 23  2  0  0  0
 23 24  1  0  0  0
 24 25  1  0  0  0
 24 26  2  0  0  0
 26 27  1  0  0  0
 27 28  2  0  0  0
 28 29  1  0  0  0
 29 30  2  0  0  0
 30 31  1  0  0  0
 31 32  2  0  0  0
 31 26  1  0  0  0
 32 22  1  0  0  0
 18 19  1  0  0  0
  3  4  1  0  0  0
  3  5  1  0  0  0
 20 21  1  0  0  0
M  END
>  <minimizedAffinity>
-4.40790

>  <minimizedRMSD>
1.05573

$$$$
ChemDiv-3391-6887 CHEMBL1449103 MCULE-4518233027 MolPort-000-469-270


 34 38  0  0  0  0  0  0  0  0999 V2000
   15.4905  -10.2467   10.4366 C   0  0  0  0  0  0  0  0  0  0  0  0
   14.3342  -10.8896   10.7488 N   0  0  0  0  0  0  0  0  0  0  0  0
   13.8000  -10.8047   11.9953 C   0  0  0  0  0  0  0  0  0  0  0  0
   12.6194  -11.4719   12.2909 O   0  0  0  0  0  0  0  0  0  0  0  0
   14.4379  -10.0493   12.9778 C   0  0  0  0  0  0  0  0  0  0  0  0
   15.6191   -9.3904   12.6408 C   0  0  0  0  0  0  0  0  0  0  0  0
   16.1237   -9.5041   11.3849 N   0  0  0  0  0  0  0  0  0  0  0  0
   12.1903  -11.9798   11.6306 H   0  0  0  0  0  0  0  0  0  0  0  0
   16.0245  -10.3672    9.1126 N   0  0  0  0  0  0  0  0  0  0  0  0
   15.6177  -11.0468    8.5279 H   0  0  0  0  0  0  0  0  0  0  0  0
   19.3378   -7.6942    3.1959 C   0  0  0  0  0  0  0  0  0  0  0  0
   19.2709   -7.8377    4.6733 C   0  0  0  0  0  0  0  0  0  0  0  0
   18.2432   -8.5854    5.2558 C   0  0  0  0  0  0  0  0  0  0  0  0
   18.1775   -8.7212    6.6453 C   0  0  0  0  0  0  0  0  0  0  0  0
   17.1795   -9.4468    7.2110 N   0  0  0  0  0  0  0  0  0  0  0  0
   17.0949   -9.5918    8.5594 C   0  0  0  0  0  0  0  0  0  0  0  0
   18.0239   -9.0027    9.3619 N   0  0  0  0  0  0  0  0  0  0  0  0
   19.0442   -8.2661    8.8503 C   0  0  0  0  0  0  0  0  0  0  0  0
   20.0267   -7.6470    9.7881 C   0  0  0  0  0  0  0  0  0  0  0  0
   19.1486   -8.1039    7.4611 C   0  0  0  0  0  0  0  0  0  0  0  0
   20.1766   -7.3553    6.8690 C   0  0  0  0  0  0  0  0  0  0  0  0
   20.2355   -7.2238    5.4784 C   0  0  0  0  0  0  0  0  0  0  0  0
   16.3462   -8.5900   13.6615 C   0  0  0  0  0  0  0  0  0  0  0  0
   17.0390   -9.6919   14.9285 S   0  0  0  0  0  0  0  0  0  0  0  0
   16.1131   -8.8927   16.2303 C   0  0  0  0  0  0  0  0  0  0  0  0
   14.9040   -8.3119   16.0150 N   0  0  0  0  0  0  0  0  0  0  0  0
   14.5881   -7.8510   17.2328 C   0  0  0  0  0  0  0  0  0  0  0  0
   13.4386   -7.1603   17.6080 C   0  0  0  0  0  0  0  0  0  0  0  0
   13.3279   -6.7739   18.9567 C   0  0  0  0  0  0  0  0  0  0  0  0
   14.3531   -7.0837   19.8786 C   0  0  0  0  0  0  0  0  0  0  0  0
   15.5010   -7.7839   19.4627 C   0  0  0  0  0  0  0  0  0  0  0  0
   15.5758   -8.1503   18.1213 C   0  0  0  0  0  0  0  0  0  0  0  0
   16.5650   -8.8158   17.5090 N   0  0  0  0  0  0  0  0  0  0  0  0
   17.4050   -9.1610   17.8891 H   0  0  0  0  0  0  0  0  0  0  0  0
 11 12  1  0  0  0
 12 13  2  0  0  0
 13 14  1  0  0  0
 14 15  2  0  0  0
 15 16  1  0  0  0
 16  9  1  0  0  0
 16 17  2  0  0  0
  9  1  1  0  0  0
  1  2  2  0  0  0
  2  3  1  0  0  0
  3  4  1  0  0  0
  3  5  2  0  0  0
  5  6  1  0  0  0
  6 23  1  0  0  0
  6  7  2  0  0  0
 23 24  1  0  0  0
 24 25  1  0  0  0
 25 26  2  0  0  0
 26 27  1  0  0  0
 27 28  2  0  0  0
 28 29  1  0  0  0
 29 30  2  0  0  0
 30 31  1  0  0  0
 31 32  2  0  0  0
 32 33  1  0  0  0
 32 27  1  0  0  0
 33 25  1  0  0  0
  7  1  1  0  0  0
 17 18  1  0  0  0
 18 19  1  0  0  0
 18 20  2  0  0  0
 20 21  1  0  0  0
 20 14  1  0  0  0
 21 22  2  0  0  0
 22 12  1  0  0  0
  9 10  1  0  0  0
  4  8  1  0  0  0
 33 34  1  0  0  0
M  END
>  <minimizedAffinity>
-4.35090

>  <minimizedRMSD>
2.28447

$$$$
ChemDiv-C679-4897 MCULE-7953255964 MolPort-007-656-007 PubChem-46258429 ZINC000020859372 ZINC20859372


 35 39  0  0  0  0  0  0  0  0999 V2000
   16.9293   -9.4863   16.6993 C   0  0  0  0  0  0  0  0  0  0  0  0
   16.7095   -9.2522   15.3332 C   0  0  0  0  0  0  0  0  0  0  0  0
   17.4625   -9.9218   14.3636 C   0  0  0  0  0  0  0  0  0  0  0  0
   18.4476  -10.8366   14.7673 C   0  0  0  0  0  0  0  0  0  0  0  0
   18.6720  -11.0742   16.1255 C   0  0  0  0  0  0  0  0  0  0  0  0
   17.9143  -10.4002   17.0869 C   0  0  0  0  0  0  0  0  0  0  0  0
   15.1122   -7.8673   17.5171 C   0  0  0  0  0  0  0  0  0  0  0  0
   14.7514   -7.5427   16.3530 O   0  0  0  0  0  0  0  0  0  0  0  0
   16.1734   -8.8143   17.7161 N   0  0  0  0  0  0  0  0  0  0  0  0
   16.4066   -9.0245   18.6492 H   0  0  0  0  0  0  0  0  0  0  0  0
   13.1487   -6.1234   20.9136 C   0  0  0  0  0  0  0  0  0  0  0  0
   12.5139   -6.1180   19.6464 C   0  0  0  0  0  0  0  0  0  0  0  0
   13.1703   -6.6919   18.5516 C   0  0  0  0  0  0  0  0  0  0  0  0
   14.4390   -7.2695   18.6836 C   0  0  0  0  0  0  0  0  0  0  0  0
   15.0598   -7.2717   19.9362 C   0  0  0  0  0  0  0  0  0  0  0  0
   14.4214   -6.7050   21.0390 C   0  0  0  0  0  0  0  0  0  0  0  0
   13.1267   -5.5043   23.3147 C   0  0  0  0  0  0  0  0  0  0  0  0
   12.5208   -5.5587   22.0300 O   0  0  0  0  0  0  0  0  0  0  0  0
   11.2459   -5.5652   19.4110 O   0  0  0  0  0  0  0  0  0  0  0  0
   10.3842   -5.0519   20.4166 C   0  0  0  0  0  0  0  0  0  0  0  0
   17.2124   -9.6610   13.0141 O   0  0  0  0  0  0  0  0  0  0  0  0
   17.3378  -10.6535   12.0042 C   0  0  0  0  0  0  0  0  0  0  0  0
   17.3174  -10.0074   10.6655 C   0  0  0  0  0  0  0  0  0  0  0  0
   16.0888   -9.7285   10.0439 C   0  0  0  0  0  0  0  0  0  0  0  0
   16.0951   -9.0952    8.7962 C   0  0  0  0  0  0  0  0  0  0  0  0
   15.0106   -8.8359    8.2102 O   0  0  0  0  0  0  0  0  0  0  0  0
   17.2881   -8.7662    8.2340 N   0  0  0  0  0  0  0  0  0  0  0  0
   17.4323   -8.1658    7.0550 N   0  0  0  0  0  0  0  0  0  0  0  0
   18.7355   -7.9486    6.7475 C   0  0  0  0  0  0  0  0  0  0  0  0
   19.7771   -8.5366    7.9551 S   0  0  0  0  0  0  0  0  0  0  0  0
   18.4534   -9.0391    8.8578 C   0  0  0  0  0  0  0  0  0  0  0  0
   18.4890   -9.6521   10.0660 N   0  0  0  0  0  0  0  0  0  0  0  0
   19.1878   -7.3411    5.4604 C   0  0  0  0  0  0  0  0  0  0  0  0
   19.9619   -6.0645    5.7339 C   0  0  0  0  0  0  0  0  0  0  0  0
   20.7040   -7.3381    5.3988 C   0  0  0  0  0  0  0  0  0  0  0  0
 17 18  1  0  0  0
 18 11  1  0  0  0
 11 12  2  0  0  0
 12 19  1  0  0  0
 12 13  1  0  0  0
 19 20  1  0  0  0
 13 14  2  0  0  0
 14 15  1  0  0  0
 14  7  1  0  0  0
 15 16  2  0  0  0
 16 11  1  0  0  0
  7  8  2  0  0  0
  7  9  1  0  0  0
  9  1  1  0  0  0
  1  2  2  0  0  0
  2  3  1  0  0  0
  3 21  1  0  0  0
  3  4  2  0  0  0
 21 22  1  0  0  0
 22 23  1  0  0  0
 23 24  2  0  0  0
 24 25  1  0  0  0
 25 26  2  0  0  0
 25 27  1  0  0  0
 27 28  1  0  0  0
 28 29  2  0  0  0
 29 30  1  0  0  0
 29 33  1  0  0  0
 30 31  1  0  0  0
 31 32  2  0  0  0
 31 27  1  0  0  0
 32 23  1  0  0  0
 33 34  1  0  0  0
 34 35  1  0  0  0
 35 33  1  0  0  0
  4  5  1  0  0  0
  5  6  2  0  0  0
  6  1  1  0  0  0
  9 10  1  0  0  0
M  END
>  <minimizedAffinity>
-4.33898

>  <minimizedRMSD>
1.29402

$$$$
ChemDiv-C679-5017 MCULE-9804206619 MolPort-007-656-012 PubChem-46258433 ZINC000013368321


 33 36  0  0  0  0  0  0  0  0999 V2000
   16.5361   -9.6058   13.9295 O   0  0  0  0  0  0  0  0  0  0  0  0
   16.5736   -9.5287   15.3239 C   0  0  0  0  0  0  0  0  0  0  0  0
   17.3426  -10.4182   16.0909 C   0  0  0  0  0  0  0  0  0  0  0  0
   17.3578  -10.3132   17.4837 C   0  0  0  0  0  0  0  0  0  0  0  0
   16.6060   -9.3205   18.1176 C   0  0  0  0  0  0  0  0  0  0  0  0
   15.8351   -8.4276   17.3662 C   0  0  0  0  0  0  0  0  0  0  0  0
   15.8246   -8.5386   15.9674 C   0  0  0  0  0  0  0  0  0  0  0  0
   15.0774   -7.4229   18.0541 N   0  0  0  0  0  0  0  0  0  0  0  0
   13.6611   -7.4233   18.2915 C   0  0  0  0  0  0  0  0  0  0  0  0
   12.9416   -8.3746   17.8815 O   0  0  0  0  0  0  0  0  0  0  0  0
   15.5815   -6.6513   18.4001 H   0  0  0  0  0  0  0  0  0  0  0  0
   13.0429   -6.3019   19.0208 C   0  0  0  0  0  0  0  0  0  0  0  0
   12.0804   -5.4932   18.3977 C   0  0  0  0  0  0  0  0  0  0  0  0
   11.4946   -4.4296   19.0904 C   0  0  0  0  0  0  0  0  0  0  0  0
   11.8667   -4.1666   20.4115 C   0  0  0  0  0  0  0  0  0  0  0  0
   12.8244   -4.9670   21.0399 C   0  0  0  0  0  0  0  0  0  0  0  0
   13.4103   -6.0307   20.3472 C   0  0  0  0  0  0  0  0  0  0  0  0
   17.3328  -10.5216   13.1895 C   0  0  0  0  0  0  0  0  0  0  0  0
   17.4793   -9.2567    9.1701 N   0  0  0  0  0  0  0  0  0  0  0  0
   16.3535   -9.8868    9.5976 C   0  0  0  0  0  0  0  0  0  0  0  0
   15.3830  -10.0769    8.8174 O   0  0  0  0  0  0  0  0  0  0  0  0
   16.2869  -10.3220   10.9258 C   0  0  0  0  0  0  0  0  0  0  0  0
   17.3895  -10.0956   11.7663 C   0  0  0  0  0  0  0  0  0  0  0  0
   18.4938   -9.4502   11.2951 N   0  0  0  0  0  0  0  0  0  0  0  0
   18.5206   -9.0452   10.0019 C   0  0  0  0  0  0  0  0  0  0  0  0
   19.7786   -8.2394    9.2351 S   0  0  0  0  0  0  0  0  0  0  0  0
   18.8841   -8.2074    7.7934 C   0  0  0  0  0  0  0  0  0  0  0  0
   17.6675   -8.7907    7.9379 N   0  0  0  0  0  0  0  0  0  0  0  0
   19.3582   -7.5617    6.5268 C   0  0  0  0  0  0  0  0  0  0  0  0
   18.8741   -6.1166    6.4077 C   0  0  0  0  0  0  0  0  0  0  0  0
   18.1137   -5.6465    7.6398 C   0  0  0  0  0  0  0  0  0  0  0  0
   19.0063   -8.3809    5.2895 C   0  0  0  0  0  0  0  0  0  0  0  0
   19.8191   -7.9164    4.0954 C   0  0  0  0  0  0  0  0  0  0  0  0
 19 20  1  0  0  0
 20 21  2  0  0  0
 20 22  1  0  0  0
 22 23  2  0  0  0
 23 24  1  0  0  0
 24 25  2  0  0  0
 25 26  1  0  0  0
 26 27  1  0  0  0
 27 29  1  0  0  0
 29 30  1  0  0  0
 30 31  1  0  0  0
 29 32  1  0  0  0
 32 33  1  0  0  0
 27 28  2  0  0  0
 23 18  1  0  0  0
 18  1  1  0  0  0
  1  2  1  0  0  0
  2  3  2  0  0  0
  3  4  1  0  0  0
  4  5  2  0  0  0
  5  6  1  0  0  0
  6  7  2  0  0  0
  6  8  1  0  0  0
  8  9  1  0  0  0
  9 12  1  0  0  0
 12 13  2  0  0  0
 13 14  1  0  0  0
 14 15  2  0  0  0
 15 16  1  0  0  0
 16 17  2  0  0  0
  9 10  2  0  0  0
 25 19  1  0  0  0
  7  2  1  0  0  0
 17 12  1  0  0  0
 28 19  1  0  0  0
  8 11  1  0  0  0
M  END
>  <minimizedAffinity>
-4.32148

>  <minimizedRMSD>
1.57557

$$$$
ChemDiv-G756-0786 MCULE-6909045997 MolPort-010-744-672 PubChem-50802626 ZINC000033268590 ZINC33268590


 34 37  0  0  0  0  0  0  0  0999 V2000
   16.7893  -10.0109   16.7217 C   0  0  0  0  0  0  0  0  0  0  0  0
   17.4076  -11.1686   17.1942 C   0  0  0  0  0  0  0  0  0  0  0  0
   18.0242  -12.0503   16.3063 C   0  0  0  0  0  0  0  0  0  0  0  0
   18.0329  -11.7896   14.9325 C   0  0  0  0  0  0  0  0  0  0  0  0
   18.7155  -12.7869   14.0612 C   0  0  0  0  0  0  0  0  0  0  0  0
   17.4097  -10.6133   14.4373 C   0  0  0  0  0  0  0  0  0  0  0  0
   16.7973   -9.7430   15.3465 C   0  0  0  0  0  0  0  0  0  0  0  0
   15.2442   -8.0710   17.3696 C   0  0  0  0  0  0  0  0  0  0  0  0
   14.8782   -7.8317   16.1884 O   0  0  0  0  0  0  0  0  0  0  0  0
   16.1669   -9.1276   17.6639 N   0  0  0  0  0  0  0  0  0  0  0  0
   16.3972   -9.2607   18.6118 H   0  0  0  0  0  0  0  0  0  0  0  0
   14.7309   -7.2217   18.4811 C   0  0  0  0  0  0  0  0  0  0  0  0
   15.8067   -6.7764   19.3013 O   0  0  0  0  0  0  0  0  0  0  0  0
   13.7837   -8.4933   23.4764 C   0  0  0  0  0  0  0  0  0  0  0  0
   14.8737   -7.7810   22.7606 C   0  0  0  0  0  0  0  0  0  0  0  0
   15.9608   -7.2685   23.4739 C   0  0  0  0  0  0  0  0  0  0  0  0
   16.9856   -6.5987   22.7993 C   0  0  0  0  0  0  0  0  0  0  0  0
   16.9238   -6.4415   21.4112 C   0  0  0  0  0  0  0  0  0  0  0  0
   15.8393   -6.9522   20.6895 C   0  0  0  0  0  0  0  0  0  0  0  0
   14.8113   -7.6222   21.3735 C   0  0  0  0  0  0  0  0  0  0  0  0
   17.3595  -10.2449   13.0832 O   0  0  0  0  0  0  0  0  0  0  0  0
   18.3922   -9.5788   12.3710 C   0  0  0  0  0  0  0  0  0  0  0  0
   18.0119   -9.4553   10.9393 C   0  0  0  0  0  0  0  0  0  0  0  0
   16.7959   -9.9635   10.4954 C   0  0  0  0  0  0  0  0  0  0  0  0
   16.4542   -9.8114    9.1531 C   0  0  0  0  0  0  0  0  0  0  0  0
   15.3524  -10.2747    8.7487 O   0  0  0  0  0  0  0  0  0  0  0  0
   17.3050   -9.1668    8.2944 N   0  0  0  0  0  0  0  0  0  0  0  0
   16.9627   -9.0216    6.9797 C   0  0  0  0  0  0  0  0  0  0  0  0
   17.8108   -8.3674    6.0863 C   0  0  0  0  0  0  0  0  0  0  0  0
   19.0214   -7.8556    6.5454 C   0  0  0  0  0  0  0  0  0  0  0  0
   19.3757   -7.9986    7.8857 C   0  0  0  0  0  0  0  0  0  0  0  0
   20.6780   -7.4440    8.3539 C   0  0  0  0  0  0  0  0  0  0  0  0
   18.5009   -8.6639    8.7617 C   0  0  0  0  0  0  0  0  0  0  0  0
   18.8333   -8.8120   10.0732 N   0  0  0  0  0  0  0  0  0  0  0  0
 14 15  1  0  0  0
 15 16  2  0  0  0
 16 17  1  0  0  0
 17 18  2  0  0  0
 18 19  1  0  0  0
 19 13  1  0  0  0
 19 20  2  0  0  0
 13 12  1  0  0  0
 12  8  1  0  0  0
  8  9  2  0  0  0
  8 10  1  0  0  0
 10  1  1  0  0  0
  1  2  2  0  0  0
  2  3  1  0  0  0
  3  4  2  0  0  0
  4  5  1  0  0  0
  4  6  1  0  0  0
  6 21  1  0  0  0
  6  7  2  0  0  0
 21 22  1  0  0  0
 22 23  1  0  0  0
 23 24  2  0  0  0
 24 25  1  0  0  0
 25 26  2  0  0  0
 25 27  1  0  0  0
 27 28  1  0  0  0
 28 29  2  0  0  0
 29 30  1  0  0  0
 30 31  2  0  0  0
 31 32  1  0  0  0
 31 33  1  0  0  0
 33 34  2  0  0  0
 33 27  1  0  0  0
 34 23  1  0  0  0
  7  1  1  0  0  0
 20 15  1  0  0  0
 10 11  1  0  0  0
M  END
>  <minimizedAffinity>
-4.31926

>  <minimizedRMSD>
1.83356

$$$$
ChemDiv-F813-4489 MCULE-7496104464 MolPort-009-709-099 PubChem-45501454 ZINC000035533799


 36 40  0  0  0  0  0  0  0  0999 V2000
   17.9511   -8.8945    9.3901 C   0  0  0  0  0  0  0  0  0  0  0  0
   18.3811   -8.5941    8.1019 C   0  0  0  0  0  0  0  0  0  0  0  0
   19.6889   -7.6830    7.5703 S   0  0  0  0  0  0  0  0  0  0  0  0
   19.2976   -7.9645    5.9404 C   0  0  0  0  0  0  0  0  0  0  0  0
   18.1898   -8.7358    5.7982 N   0  0  0  0  0  0  0  0  0  0  0  0
   17.6906   -9.0804    7.0111 C   0  0  0  0  0  0  0  0  0  0  0  0
   16.5870   -9.8510    7.1782 N   0  0  0  0  0  0  0  0  0  0  0  0
   16.1607  -10.1440    8.4413 C   0  0  0  0  0  0  0  0  0  0  0  0
   16.8375   -9.6683    9.5303 N   0  0  0  0  0  0  0  0  0  0  0  0
   20.0325   -7.4433    4.8264 N   0  0  0  0  0  0  0  0  0  0  0  0
   21.4073   -6.9867    4.9841 C   0  0  0  0  0  0  0  0  0  0  0  0
   21.5550   -5.5773    4.4171 C   0  0  0  0  0  0  0  0  0  0  0  0
   20.8303   -5.3987    3.1115 C   0  0  0  0  0  0  0  0  0  0  0  0
   21.1253   -4.2742    2.3336 C   0  0  0  0  0  0  0  0  0  0  0  0
   20.4544   -4.0539    1.1277 C   0  0  0  0  0  0  0  0  0  0  0  0
   19.4789   -4.9553    0.6952 C   0  0  0  0  0  0  0  0  0  0  0  0
   19.1689   -6.0759    1.4702 C   0  0  0  0  0  0  0  0  0  0  0  0
   19.8301   -6.3001    2.6818 C   0  0  0  0  0  0  0  0  0  0  0  0
   19.4819   -7.5241    3.4774 C   0  0  0  0  0  0  0  0  0  0  0  0
   18.8129   -8.2865   10.8396 S   0  0  0  0  0  0  0  0  0  0  0  0
   19.3106   -9.9524   11.3790 C   0  0  0  0  0  0  0  0  0  0  0  0
   18.8567  -10.0046   13.8605 N   0  0  0  0  0  0  0  0  0  0  0  0
   18.4809  -10.3956   12.5333 C   0  0  0  0  0  0  0  0  0  0  0  0
   17.4548  -11.0942   12.3217 O   0  0  0  0  0  0  0  0  0  0  0  0
   19.6786   -9.4689   13.9426 H   0  0  0  0  0  0  0  0  0  0  0  0
   17.0523   -9.5304   15.4916 C   0  0  0  0  0  0  0  0  0  0  0  0
   18.1671  -10.3079   15.0844 C   0  0  0  0  0  0  0  0  0  0  0  0
   18.5864  -11.3783   15.8911 C   0  0  0  0  0  0  0  0  0  0  0  0
   17.9250  -11.6830   17.0805 C   0  0  0  0  0  0  0  0  0  0  0  0
   16.8310  -10.9197   17.4817 C   0  0  0  0  0  0  0  0  0  0  0  0
   16.4001   -9.8532   16.6924 C   0  0  0  0  0  0  0  0  0  0  0  0
   16.7098   -7.0518   15.1810 N   0  0  0  0  0  0  0  0  0  0  0  0
   16.5361   -8.3834   14.7031 C   0  0  0  0  0  0  0  0  0  0  0  0
   15.9398   -8.5598   13.6081 O   0  0  0  0  0  0  0  0  0  0  0  0
   16.3669   -6.2921   14.6571 H   0  0  0  0  0  0  0  0  0  0  0  0
   17.1726   -6.8918   16.0351 H   0  0  0  0  0  0  0  0  0  0  0  0
 32 33  1  0  0  0
 33 34  2  0  0  0
 33 26  1  0  0  0
 26 27  2  0  0  0
 27 22  1  0  0  0
 22 23  1  0  0  0
 23 24  2  0  0  0
 23 21  1  0  0  0
 21 20  1  0  0  0
 20  1  1  0  0  0
  1  2  2  0  0  0
  2  3  1  0  0  0
  3  4  1  0  0  0
  4  5  2  0  0  0
  5  6  1  0  0  0
  6  7  2  0  0  0
  7  8  1  0  0  0
  8  9  2  0  0  0
  4 10  1  0  0  0
 10 11  1  0  0  0
 11 12  1  0  0  0
 12 13  1  0  0  0
 13 14  2  0  0  0
 14 15  1  0  0  0
 15 16  2  0  0  0
 16 17  1  0  0  0
 17 18  2  0  0  0
 18 19  1  0  0  0
 27 28  1  0  0  0
 28 29  2  0  0  0
 29 30  1  0  0  0
 30 31  2  0  0  0
 31 26  1  0  0  0
  9  1  1  0  0  0
 19 10  1  0  0  0
  6  2  1  0  0  0
 18 13  1  0  0  0
 32 35  1  0  0  0
 32 36  1  0  0  0
 22 25  1  0  0  0
M  END
>  <minimizedAffinity>
-4.31223

>  <minimizedRMSD>
1.80036

$$$$
ChemDiv-G357-3502 MCULE-1795924349 MolPort-007-848-015 PubChem-20953230 ZINC000015772383


 31 33  0  0  0  0  0  0  0  0999 V2000
   17.4690  -10.2662   12.5897 C   0  0  0  0  0  0  0  0  0  0  0  0
   18.1694  -11.3057   12.4393 O   0  0  0  0  0  0  0  0  0  0  0  0
   17.1250   -9.7982   13.9419 C   0  0  0  0  0  0  0  0  0  0  0  0
   17.4494  -10.5679   15.0677 C   0  0  0  0  0  0  0  0  0  0  0  0
   17.1202  -10.1178   16.3494 C   0  0  0  0  0  0  0  0  0  0  0  0
   16.4619   -8.8960   16.5236 C   0  0  0  0  0  0  0  0  0  0  0  0
   16.1388   -8.1250   15.3973 C   0  0  0  0  0  0  0  0  0  0  0  0
   16.4681   -8.5734   14.1152 C   0  0  0  0  0  0  0  0  0  0  0  0
   16.1438   -8.4673   17.8547 N   0  0  0  0  0  0  0  0  0  0  0  0
   14.9905   -7.7197   18.2616 C   0  0  0  0  0  0  0  0  0  0  0  0
   14.1039   -7.3820   17.4330 O   0  0  0  0  0  0  0  0  0  0  0  0
   16.7837   -8.7117   18.5619 H   0  0  0  0  0  0  0  0  0  0  0  0
   14.8224   -7.3616   19.6989 C   0  0  0  0  0  0  0  0  0  0  0  0
   13.3503   -7.2177   20.0509 C   0  0  0  0  0  0  0  0  0  0  0  0
   12.9579   -5.7523   20.0861 C   0  0  0  0  0  0  0  0  0  0  0  0
   13.1004   -7.8294   21.4128 C   0  0  0  0  0  0  0  0  0  0  0  0
   17.0191   -9.5538   11.4759 O   0  0  0  0  0  0  0  0  0  0  0  0
   16.4561  -10.2032   10.3453 C   0  0  0  0  0  0  0  0  0  0  0  0
   17.6508   -8.1347    6.8705 N   0  0  0  0  0  0  0  0  0  0  0  0
   18.1701   -7.5563    5.7901 N   0  0  0  0  0  0  0  0  0  0  0  0
   19.3937   -8.0527    5.4871 C   0  0  0  0  0  0  0  0  0  0  0  0
   19.8902   -9.2461    6.5881 S   0  0  0  0  0  0  0  0  0  0  0  0
   18.4464   -9.0713    7.4282 C   0  0  0  0  0  0  0  0  0  0  0  0
   18.0760   -9.7505    8.5411 N   0  0  0  0  0  0  0  0  0  0  0  0
   16.8639   -9.4882    9.1072 C   0  0  0  0  0  0  0  0  0  0  0  0
   16.0177   -8.5141    8.5526 C   0  0  0  0  0  0  0  0  0  0  0  0
   16.4381   -7.8326    7.4048 C   0  0  0  0  0  0  0  0  0  0  0  0
   15.7020   -6.9538    6.8827 O   0  0  0  0  0  0  0  0  0  0  0  0
   20.2186   -7.5564    4.3490 C   0  0  0  0  0  0  0  0  0  0  0  0
   21.5392   -6.9875    4.8439 C   0  0  0  0  0  0  0  0  0  0  0  0
   21.7836   -5.6127    4.2493 C   0  0  0  0  0  0  0  0  0  0  0  0
 19 20  1  0  0  0
 20 21  2  0  0  0
 21 22  1  0  0  0
 22 23  1  0  0  0
 23 24  2  0  0  0
 24 25  1  0  0  0
 25 18  1  0  0  0
 18 17  1  0  0  0
 17  1  1  0  0  0
  1  2  2  0  0  0
  1  3  1  0  0  0
  3  4  2  0  0  0
  4  5  1  0  0  0
  5  6  2  0  0  0
  6  7  1  0  0  0
  7  8  2  0  0  0
  6  9  1  0  0  0
  9 10  1  0  0  0
 10 13  1  0  0  0
 13 14  1  0  0  0
 14 15  1  0  0  0
 14 16  1  0  0  0
 10 11  2  0  0  0
 25 26  2  0  0  0
 26 27  1  0  0  0
 27 28  2  0  0  0
 21 29  1  0  0  0
 29 30  1  0  0  0
 30 31  1  0  0  0
 23 19  1  0  0  0
  8  3  1  0  0  0
 27 19  1  0  0  0
  9 12  1  0  0  0
M  END
>  <minimizedAffinity>
-4.27713

>  <minimizedRMSD>
1.96712

$$$$
ChemDiv-D483-1566 MCULE-1228365025 MolPort-010-647-064 PubChem-50751145 ZINC000021805227 ZINC21805227


 33 36  0  0  0  0  0  0  0  0999 V2000
   17.7287   -9.3847   14.8577 C   0  0  0  0  0  0  0  0  0  0  0  0
   18.7082  -10.3077   14.8073 N   0  0  0  0  0  0  0  0  0  0  0  0
   18.4688  -11.0664   13.7463 N   0  0  0  0  0  0  0  0  0  0  0  0
   17.3460  -10.5927   13.1706 C   0  0  0  0  0  0  0  0  0  0  0  0
   16.8611   -9.5343   13.8430 N   0  0  0  0  0  0  0  0  0  0  0  0
   15.6715   -8.7493   13.5537 C   0  0  0  0  0  0  0  0  0  0  0  0
   17.6126   -8.1295   16.1316 S   0  0  0  0  0  0  0  0  0  0  0  0
   16.3521   -9.0599   17.0540 C   0  0  0  0  0  0  0  0  0  0  0  0
   15.5470   -8.2210   19.2865 N   0  0  0  0  0  0  0  0  0  0  0  0
   15.5189   -8.1277   17.8590 C   0  0  0  0  0  0  0  0  0  0  0  0
   14.8121   -7.2643   17.2743 O   0  0  0  0  0  0  0  0  0  0  0  0
   16.0562   -8.9692   19.6740 H   0  0  0  0  0  0  0  0  0  0  0  0
   13.5157   -5.8897   21.5323 C   0  0  0  0  0  0  0  0  0  0  0  0
   14.8183   -5.8521   21.8892 N   0  0  0  0  0  0  0  0  0  0  0  0
   15.5895   -6.6490   21.1498 N   0  0  0  0  0  0  0  0  0  0  0  0
   14.9046   -7.3291   20.2057 C   0  0  0  0  0  0  0  0  0  0  0  0
   13.2582   -6.9546   20.2508 S   0  0  0  0  0  0  0  0  0  0  0  0
   12.8506   -3.6145   22.2015 C   0  0  0  0  0  0  0  0  0  0  0  0
   12.4599   -5.0797   22.2014 C   0  0  0  0  0  0  0  0  0  0  0  0
   16.7538  -11.1578   11.9182 C   0  0  0  0  0  0  0  0  0  0  0  0
   16.9908  -10.2369   10.7536 C   0  0  0  0  0  0  0  0  0  0  0  0
   15.9706   -9.9502    9.8341 C   0  0  0  0  0  0  0  0  0  0  0  0
   14.5955  -10.5090    9.9923 C   0  0  0  0  0  0  0  0  0  0  0  0
   16.2229   -9.1341    8.7822 N   0  0  0  0  0  0  0  0  0  0  0  0
   17.4467   -8.5737    8.5907 C   0  0  0  0  0  0  0  0  0  0  0  0
   18.4659   -8.8238    9.4837 N   0  0  0  0  0  0  0  0  0  0  0  0
   19.6947   -8.2512    9.3044 C   0  0  0  0  0  0  0  0  0  0  0  0
   19.9425   -7.4074    8.2218 C   0  0  0  0  0  0  0  0  0  0  0  0
   18.9198   -7.1460    7.3133 C   0  0  0  0  0  0  0  0  0  0  0  0
   17.6657   -7.7287    7.4890 C   0  0  0  0  0  0  0  0  0  0  0  0
   16.5824   -7.4273    6.5079 C   0  0  0  0  0  0  0  0  0  0  0  0
   18.2505   -9.6468   10.5576 C   0  0  0  0  0  0  0  0  0  0  0  0
   19.1802   -9.8713   11.3854 O   0  0  0  0  0  0  0  0  0  0  0  0
 18 19  1  0  0  0
 19 13  1  0  0  0
 13 14  2  0  0  0
 14 15  1  0  0  0
 15 16  2  0  0  0
 16  9  1  0  0  0
 16 17  1  0  0  0
  9 10  1  0  0  0
 10 11  2  0  0  0
 10  8  1  0  0  0
  8  7  1  0  0  0
  7  1  1  0  0  0
  1  2  2  0  0  0
  2  3  1  0  0  0
  3  4  2  0  0  0
  4 20  1  0  0  0
  4  5  1  0  0  0
 20 21  1  0  0  0
 21 22  2  0  0  0
 22 23  1  0  0  0
 22 24  1  0  0  0
 24 25  2  0  0  0
 25 26  1  0  0  0
 26 27  1  0  0  0
 26 32  1  0  0  0
 27 28  2  0  0  0
 28 29  1  0  0  0
 29 30  2  0  0  0
 30 31  1  0  0  0
 30 25  1  0  0  0
 32 33  2  0  0  0
 32 21  1  0  0  0
  5  6  1  0  0  0
  5  1  1  0  0  0
 17 13  1  0  0  0
  9 12  1  0  0  0
M  END
>  <minimizedAffinity>
-4.26965

>  <minimizedRMSD>
2.74281

$$$$
ChemDiv-D483-1810 MCULE-4358839662 MolPort-007-710-998 PubChem-20899124 ZINC000015859292 ZINC15859292


 33 36  0  0  0  0  0  0  0  0999 V2000
   16.2117   -8.1752   13.9518 C   0  0  0  0  0  0  0  0  0  0  0  0
   17.0757   -9.2534   13.4981 N   0  0  0  0  0  0  0  0  0  0  0  0
   16.9829   -9.9748   12.3681 C   0  0  0  0  0  0  0  0  0  0  0  0
   17.9899  -10.8655   12.2717 N   0  0  0  0  0  0  0  0  0  0  0  0
   18.7401  -10.7200   13.3559 N   0  0  0  0  0  0  0  0  0  0  0  0
   18.1754   -9.7449   14.0940 C   0  0  0  0  0  0  0  0  0  0  0  0
   15.9324   -9.7877   11.3204 C   0  0  0  0  0  0  0  0  0  0  0  0
   16.5595   -9.5562    9.9749 C   0  0  0  0  0  0  0  0  0  0  0  0
   16.1674  -10.3074    8.8570 C   0  0  0  0  0  0  0  0  0  0  0  0
   15.0938  -11.3394    8.9499 C   0  0  0  0  0  0  0  0  0  0  0  0
   16.7661  -10.0956    7.6595 N   0  0  0  0  0  0  0  0  0  0  0  0
   17.7452   -9.1688    7.5116 C   0  0  0  0  0  0  0  0  0  0  0  0
   18.3337   -8.9914    6.2571 C   0  0  0  0  0  0  0  0  0  0  0  0
   19.3400   -8.0404    6.0996 C   0  0  0  0  0  0  0  0  0  0  0  0
   19.7485   -7.2773    7.1914 C   0  0  0  0  0  0  0  0  0  0  0  0
   19.1406   -7.4788    8.4317 C   0  0  0  0  0  0  0  0  0  0  0  0
   18.1536   -8.4123    8.5863 N   0  0  0  0  0  0  0  0  0  0  0  0
   17.5714   -8.5955    9.8121 C   0  0  0  0  0  0  0  0  0  0  0  0
   17.9380   -7.9018   10.8026 O   0  0  0  0  0  0  0  0  0  0  0  0
   18.8447   -9.1610   15.6507 S   0  0  0  0  0  0  0  0  0  0  0  0
   17.8260  -10.2986   16.6409 C   0  0  0  0  0  0  0  0  0  0  0  0
   16.5536   -9.6465   17.0572 C   0  0  0  0  0  0  0  0  0  0  0  0
   15.4817   -9.9321   16.4612 O   0  0  0  0  0  0  0  0  0  0  0  0
   16.5700   -8.7233   18.1533 N   0  0  0  0  0  0  0  0  0  0  0  0
   17.4388   -8.5731   18.5914 H   0  0  0  0  0  0  0  0  0  0  0  0
   15.4507   -7.9958   18.6773 C   0  0  0  0  0  0  0  0  0  0  0  0
   15.4315   -7.6787   20.0396 C   0  0  0  0  0  0  0  0  0  0  0  0
   14.3581   -6.9690   20.5859 C   0  0  0  0  0  0  0  0  0  0  0  0
   13.2932   -6.5718   19.7722 C   0  0  0  0  0  0  0  0  0  0  0  0
   12.2599   -5.8807   20.3126 F   0  0  0  0  0  0  0  0  0  0  0  0
   13.3041   -6.8850   18.4068 C   0  0  0  0  0  0  0  0  0  0  0  0
   11.9825   -6.3949   17.3642 Cl  0  0  0  0  0  0  0  0  0  0  0  0
   14.3797   -7.5941   17.8644 C   0  0  0  0  0  0  0  0  0  0  0  0
  1  2  1  0  0  0
  2  3  1  0  0  0
  3  7  1  0  0  0
  3  4  2  0  0  0
  7  8  1  0  0  0
  8  9  2  0  0  0
  9 10  1  0  0  0
  9 11  1  0  0  0
 11 12  2  0  0  0
 12 13  1  0  0  0
 13 14  2  0  0  0
 14 15  1  0  0  0
 15 16  2  0  0  0
 16 17  1  0  0  0
 17 18  1  0  0  0
 17 12  1  0  0  0
 18 19  2  0  0  0
 18  8  1  0  0  0
  4  5  1  0  0  0
  5  6  2  0  0  0
  6 20  1  0  0  0
  6  2  1  0  0  0
 20 21  1  0  0  0
 21 22  1  0  0  0
 22 23  2  0  0  0
 22 24  1  0  0  0
 24 26  1  0  0  0
 26 27  2  0  0  0
 27 28  1  0  0  0
 28 29  2  0  0  0
 29 30  1  0  0  0
 29 31  1  0  0  0
 31 32  1  0  0  0
 31 33  2  0  0  0
 33 26  1  0  0  0
 24 25  1  0  0  0
M  END
>  <minimizedAffinity>
-4.21028

>  <minimizedRMSD>
1.89164

$$$$
ChemDiv-D439-4158 MCULE-2580418835 MolPort-007-706-786 PubChem-46268368 ZINC000021797163 ZINC21797163


 35 38  0  0  0  0  0  0  0  0999 V2000
   16.6707   -9.4730   14.8801 C   0  0  0  0  0  0  0  0  0  0  0  0
   16.1493   -8.5507   15.7948 C   0  0  0  0  0  0  0  0  0  0  0  0
   16.3107   -8.7214   17.1757 C   0  0  0  0  0  0  0  0  0  0  0  0
   17.0017   -9.8368   17.6489 C   0  0  0  0  0  0  0  0  0  0  0  0
   17.5297  -10.7690   16.7555 C   0  0  0  0  0  0  0  0  0  0  0  0
   17.3745  -10.6027   15.3757 C   0  0  0  0  0  0  0  0  0  0  0  0
   17.9696  -11.6499   14.4987 C   0  0  0  0  0  0  0  0  0  0  0  0
   15.7729   -7.7900   18.1233 N   0  0  0  0  0  0  0  0  0  0  0  0
   14.5284   -7.0863   18.0229 C   0  0  0  0  0  0  0  0  0  0  0  0
   13.8052   -7.1782   16.9957 O   0  0  0  0  0  0  0  0  0  0  0  0
   16.3147   -7.6156   18.9266 H   0  0  0  0  0  0  0  0  0  0  0  0
   14.0753   -6.2485   19.1675 C   0  0  0  0  0  0  0  0  0  0  0  0
   12.3063   -5.8421   19.0057 S   0  0  0  0  0  0  0  0  0  0  0  0
   11.7913   -7.5555   18.9429 C   0  0  0  0  0  0  0  0  0  0  0  0
   10.9118   -7.9853   17.9427 C   0  0  0  0  0  0  0  0  0  0  0  0
   10.5110   -9.3234   17.8909 C   0  0  0  0  0  0  0  0  0  0  0  0
   10.9857  -10.2321   18.8418 C   0  0  0  0  0  0  0  0  0  0  0  0
   10.4854  -11.9078   18.7756 Cl  0  0  0  0  0  0  0  0  0  0  0  0
   11.8568   -9.8017   19.8474 C   0  0  0  0  0  0  0  0  0  0  0  0
   12.2585   -8.4635   19.8990 C   0  0  0  0  0  0  0  0  0  0  0  0
   16.4500   -9.2023   13.5201 O   0  0  0  0  0  0  0  0  0  0  0  0
   16.1990  -10.1744   12.5151 C   0  0  0  0  0  0  0  0  0  0  0  0
   18.7142   -8.3828    7.9735 N   0  0  0  0  0  0  0  0  0  0  0  0
   19.7596   -7.7848    8.5973 C   0  0  0  0  0  0  0  0  0  0  0  0
   19.6739   -7.9229    9.9489 N   0  0  0  0  0  0  0  0  0  0  0  0
   18.5340   -8.6277   10.0871 C   0  0  0  0  0  0  0  0  0  0  0  0
   17.9920   -9.0308   11.2622 N   0  0  0  0  0  0  0  0  0  0  0  0
   16.8275   -9.7449   11.2384 C   0  0  0  0  0  0  0  0  0  0  0  0
   16.1946  -10.0425   10.0145 C   0  0  0  0  0  0  0  0  0  0  0  0
   16.7913   -9.6050    8.8257 C   0  0  0  0  0  0  0  0  0  0  0  0
   16.2581   -9.8544    7.7125 O   0  0  0  0  0  0  0  0  0  0  0  0
   17.9547   -8.9066    8.9178 N   0  0  0  0  0  0  0  0  0  0  0  0
   17.3810   -7.4541    6.1423 C   0  0  0  0  0  0  0  0  0  0  0  0
   18.4640   -8.4413    6.5350 C   0  0  0  0  0  0  0  0  0  0  0  0
   19.7367   -8.1518    5.7611 C   0  0  0  0  0  0  0  0  0  0  0  0
 33 34  1  0  0  0
 34 35  1  0  0  0
 34 23  1  0  0  0
 23 24  1  0  0  0
 24 25  2  0  0  0
 25 26  1  0  0  0
 26 27  2  0  0  0
 27 28  1  0  0  0
 28 22  1  0  0  0
 28 29  2  0  0  0
 22 21  1  0  0  0
 21  1  1  0  0  0
  1  2  2  0  0  0
  2  3  1  0  0  0
  3  8  1  0  0  0
  3  4  2  0  0  0
  8  9  1  0  0  0
  9 10  2  0  0  0
  9 12  1  0  0  0
 12 13  1  0  0  0
 13 14  1  0  0  0
 14 15  2  0  0  0
 15 16  1  0  0  0
 16 17  2  0  0  0
 17 18  1  0  0  0
 17 19  1  0  0  0
 19 20  2  0  0  0
 20 14  1  0  0  0
  4  5  1  0  0  0
  5  6  2  0  0  0
  6  7  1  0  0  0
  6  1  1  0  0  0
 29 30  1  0  0  0
 30 31  2  0  0  0
 30 32  1  0  0  0
 32 23  1  0  0  0
 32 26  1  0  0  0
  8 11  1  0  0  0
M  END
>  <minimizedAffinity>
-4.20751

>  <minimizedRMSD>
1.49966

$$$$
ChemDiv-F160-1269 MCULE-4202493738 MolPort-010-736-143 PubChem-53024216 ZINC000035378508 ZINC35378508


 32 34  0  0  0  0  0  0  0  0999 V2000
   17.7567  -10.4364   12.5272 C   0  0  0  0  0  0  0  0  0  0  0  0
   18.9856  -10.3454   12.7881 O   0  0  0  0  0  0  0  0  0  0  0  0
   16.7963  -10.5541   13.5791 N   0  0  0  0  0  0  0  0  0  0  0  0
   15.8465  -10.6617   13.3434 H   0  0  0  0  0  0  0  0  0  0  0  0
   17.3069  -10.4481   11.1063 C   0  0  0  0  0  0  0  0  0  0  0  0
   16.9724   -9.0409   10.6274 C   0  0  0  0  0  0  0  0  0  0  0  0
   20.4049   -7.4699    4.3098 C   0  0  0  0  0  0  0  0  0  0  0  0
   19.8692   -7.7168    5.6768 C   0  0  0  0  0  0  0  0  0  0  0  0
   18.6279   -8.2713    5.9765 C   0  0  0  0  0  0  0  0  0  0  0  0
   17.5825   -8.7281    5.0171 C   0  0  0  0  0  0  0  0  0  0  0  0
   18.5791   -8.3006    7.3530 C   0  0  0  0  0  0  0  0  0  0  0  0
   19.7591   -7.7776    7.7885 C   0  0  0  0  0  0  0  0  0  0  0  0
   20.5286   -7.4300    6.7855 O   0  0  0  0  0  0  0  0  0  0  0  0
   20.0478   -7.6549    9.1050 N   0  0  0  0  0  0  0  0  0  0  0  0
   19.1188   -8.0730   10.0149 C   0  0  0  0  0  0  0  0  0  0  0  0
   17.9203   -8.6041    9.6079 N   0  0  0  0  0  0  0  0  0  0  0  0
   17.6267   -8.7279    8.2723 C   0  0  0  0  0  0  0  0  0  0  0  0
   16.5272   -9.2121    7.8871 O   0  0  0  0  0  0  0  0  0  0  0  0
   17.1693  -10.5208   14.9862 C   0  0  0  0  0  0  0  0  0  0  0  0
   17.4629   -9.0930   15.4283 C   0  0  0  0  0  0  0  0  0  0  0  0
   16.4157   -8.5920   16.3674 C   0  0  0  0  0  0  0  0  0  0  0  0
   16.6467   -8.5779   17.7490 C   0  0  0  0  0  0  0  0  0  0  0  0
   15.6626   -8.0988   18.6188 C   0  0  0  0  0  0  0  0  0  0  0  0
   14.4455   -7.6299   18.1118 C   0  0  0  0  0  0  0  0  0  0  0  0
   14.2203   -7.6323   16.7306 C   0  0  0  0  0  0  0  0  0  0  0  0
   15.2043   -8.1112   15.8609 C   0  0  0  0  0  0  0  0  0  0  0  0
   13.2160   -7.0228   19.2058 S   0  0  0  0  0  0  0  0  0  0  0  0
   13.7802   -7.1441   20.8336 N   0  0  0  0  0  0  0  0  0  0  0  0
   11.9573   -7.8287   19.0468 O   0  0  0  0  0  0  0  0  0  0  0  0
   12.9170   -5.5845   18.8876 O   0  0  0  0  0  0  0  0  0  0  0  0
   13.9836   -8.1196   21.0511 H   0  0  0  0  0  0  0  0  0  0  0  0
   13.0620   -6.7967   21.4691 H   0  0  0  0  0  0  0  0  0  0  0  0
  7  8  1  0  0  0
  8  9  2  0  0  0
  9 10  1  0  0  0
  9 11  1  0  0  0
 11 12  2  0  0  0
 12 13  1  0  0  0
 12 14  1  0  0  0
 13  8  1  0  0  0
 14 15  2  0  0  0
 15 16  1  0  0  0
 16  6  1  0  0  0
 16 17  1  0  0  0
  6  5  1  0  0  0
  5  1  1  0  0  0
  1  2  2  0  0  0
  1  3  1  0  0  0
  3 19  1  0  0  0
 19 20  1  0  0  0
 20 21  1  0  0  0
 21 22  2  0  0  0
 22 23  1  0  0  0
 23 24  2  0  0  0
 24 25  1  0  0  0
 24 27  1  0  0  0
 25 26  2  0  0  0
 26 21  1  0  0  0
 27 28  1  0  0  0
 27 29  2  0  0  0
 27 30  2  0  0  0
 17 18  2  0  0  0
 17 11  1  0  0  0
  3  4  1  0  0  0
 28 31  1  0  0  0
 28 32  1  0  0  0
M  END
>  <minimizedAffinity>
-4.20673

>  <minimizedRMSD>
2.97591

$$$$
ChemDiv-D483-1556 MCULE-7757200505 MolPort-007-710-951 PubChem-20899081 ZINC000015859244 ZINC15859244


 34 37  0  0  0  0  0  0  0  0999 V2000
   16.8770   -8.8721   14.7850 C   0  0  0  0  0  0  0  0  0  0  0  0
   16.0992   -7.9453   14.1927 N   0  0  0  0  0  0  0  0  0  0  0  0
   15.8158   -8.3998   12.9785 N   0  0  0  0  0  0  0  0  0  0  0  0
   16.4271   -9.5947   12.8537 C   0  0  0  0  0  0  0  0  0  0  0  0
   17.1026   -9.9161   13.9701 N   0  0  0  0  0  0  0  0  0  0  0  0
   17.8682  -11.1220   14.2492 C   0  0  0  0  0  0  0  0  0  0  0  0
   17.5183   -8.7162   16.4514 S   0  0  0  0  0  0  0  0  0  0  0  0
   15.9811   -9.3168   17.2191 C   0  0  0  0  0  0  0  0  0  0  0  0
   15.3718   -8.3573   19.4730 N   0  0  0  0  0  0  0  0  0  0  0  0
   15.3549   -8.2471   18.0435 C   0  0  0  0  0  0  0  0  0  0  0  0
   14.8286   -7.2563   17.4704 O   0  0  0  0  0  0  0  0  0  0  0  0
   15.8171   -9.1504   19.8498 H   0  0  0  0  0  0  0  0  0  0  0  0
   13.7765   -5.5839   22.2676 C   0  0  0  0  0  0  0  0  0  0  0  0
   15.1263   -5.9502   22.3073 C   0  0  0  0  0  0  0  0  0  0  0  0
   15.6366   -6.8698   21.3863 C   0  0  0  0  0  0  0  0  0  0  0  0
   14.8062   -7.4299   20.4104 C   0  0  0  0  0  0  0  0  0  0  0  0
   13.4522   -7.0625   20.3690 C   0  0  0  0  0  0  0  0  0  0  0  0
   12.9390   -6.1472   21.2922 C   0  0  0  0  0  0  0  0  0  0  0  0
   12.6365   -3.4598   22.8269 C   0  0  0  0  0  0  0  0  0  0  0  0
   13.2968   -4.6612   23.2019 O   0  0  0  0  0  0  0  0  0  0  0  0
   16.3765  -10.4274   11.6113 C   0  0  0  0  0  0  0  0  0  0  0  0
   17.1683   -9.7861   10.5052 C   0  0  0  0  0  0  0  0  0  0  0  0
   18.4660   -9.3066   10.7349 C   0  0  0  0  0  0  0  0  0  0  0  0
   19.1274   -9.4473   12.0656 C   0  0  0  0  0  0  0  0  0  0  0  0
   19.1508   -8.7126    9.7278 N   0  0  0  0  0  0  0  0  0  0  0  0
   18.6123   -8.5621    8.4881 C   0  0  0  0  0  0  0  0  0  0  0  0
   17.3428   -9.0293    8.2270 N   0  0  0  0  0  0  0  0  0  0  0  0
   16.7988   -8.8838    6.9802 C   0  0  0  0  0  0  0  0  0  0  0  0
   17.5115   -8.2643    5.9532 C   0  0  0  0  0  0  0  0  0  0  0  0
   18.7963   -7.7905    6.2044 C   0  0  0  0  0  0  0  0  0  0  0  0
   19.3568   -7.9369    7.4722 C   0  0  0  0  0  0  0  0  0  0  0  0
   20.7336   -7.4189    7.7176 C   0  0  0  0  0  0  0  0  0  0  0  0
   16.6230   -9.6455    9.2164 C   0  0  0  0  0  0  0  0  0  0  0  0
   15.4671  -10.0957    8.9765 O   0  0  0  0  0  0  0  0  0  0  0  0
 19 20  1  0  0  0
 20 13  1  0  0  0
 13 14  2  0  0  0
 14 15  1  0  0  0
 15 16  2  0  0  0
 16  9  1  0  0  0
 16 17  1  0  0  0
  9 10  1  0  0  0
 10 11  2  0  0  0
 10  8  1  0  0  0
  8  7  1  0  0  0
  7  1  1  0  0  0
  1  2  2  0  0  0
  2  3  1  0  0  0
  3  4  2  0  0  0
  4 21  1  0  0  0
  4  5  1  0  0  0
 21 22  1  0  0  0
 22 23  2  0  0  0
 23 24  1  0  0  0
 23 25  1  0  0  0
 25 26  2  0  0  0
 26 27  1  0  0  0
 27 28  1  0  0  0
 27 33  1  0  0  0
 28 29  2  0  0  0
 29 30  1  0  0  0
 30 31  2  0  0  0
 31 32  1  0  0  0
 31 26  1  0  0  0
 33 34  2  0  0  0
 33 22  1  0  0  0
  5  6  1  0  0  0
  5  1  1  0  0  0
 17 18  2  0  0  0
 18 13  1  0  0  0
  9 12  1  0  0  0
M  END
>  <minimizedAffinity>
-4.18235

>  <minimizedRMSD>
2.86959

$$$$
ChemDiv-D483-1613 MCULE-7943758506 MolPort-007-710-962 PubChem-20899091 ZINC000015859256 ZINC15859256


 34 37  0  0  0  0  0  0  0  0999 V2000
   16.9846   -8.8299   14.7189 C   0  0  0  0  0  0  0  0  0  0  0  0
   16.1590   -7.9400   14.1364 N   0  0  0  0  0  0  0  0  0  0  0  0
   15.8676   -8.4160   12.9333 N   0  0  0  0  0  0  0  0  0  0  0  0
   16.5197   -9.5883   12.8053 C   0  0  0  0  0  0  0  0  0  0  0  0
   17.2342   -9.8712   13.9083 N   0  0  0  0  0  0  0  0  0  0  0  0
   18.0612  -11.0366   14.1761 C   0  0  0  0  0  0  0  0  0  0  0  0
   17.6693   -8.6232   16.3632 S   0  0  0  0  0  0  0  0  0  0  0  0
   16.2353   -9.3853   17.1887 C   0  0  0  0  0  0  0  0  0  0  0  0
   15.3072   -8.4437   19.3422 N   0  0  0  0  0  0  0  0  0  0  0  0
   15.4366   -8.3589   17.9162 C   0  0  0  0  0  0  0  0  0  0  0  0
   14.8966   -7.4259   17.2649 O   0  0  0  0  0  0  0  0  0  0  0  0
   15.7350   -9.2150   19.7797 H   0  0  0  0  0  0  0  0  0  0  0  0
   13.3429   -5.6814   21.8936 C   0  0  0  0  0  0  0  0  0  0  0  0
   14.6951   -5.9865   22.0773 C   0  0  0  0  0  0  0  0  0  0  0  0
   15.3291   -6.9007   21.2303 C   0  0  0  0  0  0  0  0  0  0  0  0
   14.6184   -7.5199   20.1961 C   0  0  0  0  0  0  0  0  0  0  0  0
   13.2592   -7.2176   20.0207 C   0  0  0  0  0  0  0  0  0  0  0  0
   12.6234   -6.3044   20.8667 C   0  0  0  0  0  0  0  0  0  0  0  0
   12.6364   -3.3296   22.1780 C   0  0  0  0  0  0  0  0  0  0  0  0
   12.6749   -4.7100   22.8064 C   0  0  0  0  0  0  0  0  0  0  0  0
   16.4757  -10.4333   11.5707 C   0  0  0  0  0  0  0  0  0  0  0  0
   17.2491   -9.7897   10.4531 C   0  0  0  0  0  0  0  0  0  0  0  0
   18.5217   -9.2455   10.6774 C   0  0  0  0  0  0  0  0  0  0  0  0
   19.1776   -9.3188   12.0148 C   0  0  0  0  0  0  0  0  0  0  0  0
   19.1877   -8.6491    9.6593 N   0  0  0  0  0  0  0  0  0  0  0  0
   18.6568   -8.5634    8.4112 C   0  0  0  0  0  0  0  0  0  0  0  0
   17.4135   -9.0982    8.1548 N   0  0  0  0  0  0  0  0  0  0  0  0
   16.8769   -9.0198    6.9002 C   0  0  0  0  0  0  0  0  0  0  0  0
   17.5679   -8.3987    5.8605 C   0  0  0  0  0  0  0  0  0  0  0  0
   18.8239   -7.8527    6.1078 C   0  0  0  0  0  0  0  0  0  0  0  0
   19.3783   -7.9311    7.3837 C   0  0  0  0  0  0  0  0  0  0  0  0
   20.7268   -7.3417    7.6245 C   0  0  0  0  0  0  0  0  0  0  0  0
   16.7095   -9.7108    9.1575 C   0  0  0  0  0  0  0  0  0  0  0  0
   15.5723  -10.2115    8.9242 O   0  0  0  0  0  0  0  0  0  0  0  0
 19 20  1  0  0  0
 20 13  1  0  0  0
 13 14  2  0  0  0
 14 15  1  0  0  0
 15 16  2  0  0  0
 16  9  1  0  0  0
 16 17  1  0  0  0
  9 10  1  0  0  0
 10 11  2  0  0  0
 10  8  1  0  0  0
  8  7  1  0  0  0
  7  1  1  0  0  0
  1  2  2  0  0  0
  2  3  1  0  0  0
  3  4  2  0  0  0
  4 21  1  0  0  0
  4  5  1  0  0  0
 21 22  1  0  0  0
 22 23  2  0  0  0
 23 24  1  0  0  0
 23 25  1  0  0  0
 25 26  2  0  0  0
 26 27  1  0  0  0
 27 28  1  0  0  0
 27 33  1  0  0  0
 28 29  2  0  0  0
 29 30  1  0  0  0
 30 31  2  0  0  0
 31 32  1  0  0  0
 31 26  1  0  0  0
 33 34  2  0  0  0
 33 22  1  0  0  0
  5  6  1  0  0  0
  5  1  1  0  0  0
 17 18  2  0  0  0
 18 13  1  0  0  0
  9 12  1  0  0  0
M  END
>  <minimizedAffinity>
-4.15468

>  <minimizedRMSD>
3.13704

$$$$
ChemDiv-C679-4202 MCULE-3010332698 MolPort-007-655-813 PubChem-20874227 ZINC000013368016 ZINC13368016


 35 38  0  0  0  0  0  0  0  0999 V2000
   17.2001   -9.8797   14.9754 C   0  0  0  0  0  0  0  0  0  0  0  0
   17.5885  -11.1235   15.4973 C   0  0  0  0  0  0  0  0  0  0  0  0
   17.4743  -11.3781   16.8661 C   0  0  0  0  0  0  0  0  0  0  0  0
   16.9722  -10.3928   17.7203 C   0  0  0  0  0  0  0  0  0  0  0  0
   16.5818   -9.1487   17.2141 C   0  0  0  0  0  0  0  0  0  0  0  0
   16.6986   -8.9001   15.8381 C   0  0  0  0  0  0  0  0  0  0  0  0
   16.0704   -8.1643   18.1224 N   0  0  0  0  0  0  0  0  0  0  0  0
   14.8906   -7.3691   17.9499 C   0  0  0  0  0  0  0  0  0  0  0  0
   14.1757   -7.4742   16.9184 O   0  0  0  0  0  0  0  0  0  0  0  0
   16.5828   -8.0195   18.9504 H   0  0  0  0  0  0  0  0  0  0  0  0
   14.4872   -6.4201   19.0252 C   0  0  0  0  0  0  0  0  0  0  0  0
   13.0681   -6.3734   19.1351 O   0  0  0  0  0  0  0  0  0  0  0  0
   12.2591   -7.5152   19.1323 C   0  0  0  0  0  0  0  0  0  0  0  0
   12.4642   -8.5670   20.0385 C   0  0  0  0  0  0  0  0  0  0  0  0
   11.6375   -9.6925   20.0105 C   0  0  0  0  0  0  0  0  0  0  0  0
   10.5979   -9.7799   19.0802 C   0  0  0  0  0  0  0  0  0  0  0  0
    9.7359  -10.9970   19.0802 C   0  0  0  0  0  0  0  0  0  0  0  0
   10.3856   -8.7272   18.1706 C   0  0  0  0  0  0  0  0  0  0  0  0
    9.2880   -8.7769   17.1622 C   0  0  0  0  0  0  0  0  0  0  0  0
   11.2172   -7.6032   18.2041 C   0  0  0  0  0  0  0  0  0  0  0  0
   17.3008   -9.5924   13.6119 O   0  0  0  0  0  0  0  0  0  0  0  0
   18.2901  -10.1765   12.7748 C   0  0  0  0  0  0  0  0  0  0  0  0
   18.5515   -7.9938    7.1045 C   0  0  0  0  0  0  0  0  0  0  0  0
   17.4344   -8.6418    7.5205 N   0  0  0  0  0  0  0  0  0  0  0  0
   17.5314   -9.0650    8.7789 N   0  0  0  0  0  0  0  0  0  0  0  0
   18.7063   -8.7663    9.3707 C   0  0  0  0  0  0  0  0  0  0  0  0
   19.7294   -7.9316    8.3355 S   0  0  0  0  0  0  0  0  0  0  0  0
   18.9710   -9.1216   10.6515 N   0  0  0  0  0  0  0  0  0  0  0  0
   18.0276   -9.8049   11.3596 C   0  0  0  0  0  0  0  0  0  0  0  0
   16.7918  -10.1228   10.7725 C   0  0  0  0  0  0  0  0  0  0  0  0
   16.5579   -9.7377    9.4477 C   0  0  0  0  0  0  0  0  0  0  0  0
   15.4618  -10.0116    8.8910 O   0  0  0  0  0  0  0  0  0  0  0  0
   20.0752   -6.8592    5.5225 C   0  0  0  0  0  0  0  0  0  0  0  0
   18.6841   -7.4279    5.7211 C   0  0  0  0  0  0  0  0  0  0  0  0
   18.4005   -8.4543    4.6379 C   0  0  0  0  0  0  0  0  0  0  0  0
 33 34  1  0  0  0
 34 35  1  0  0  0
 34 23  1  0  0  0
 23 24  2  0  0  0
 24 25  1  0  0  0
 25 26  1  0  0  0
 26 27  1  0  0  0
 26 28  2  0  0  0
 27 23  1  0  0  0
 28 29  1  0  0  0
 29 22  1  0  0  0
 29 30  2  0  0  0
 22 21  1  0  0  0
 21  1  1  0  0  0
  1  2  2  0  0  0
  2  3  1  0  0  0
  3  4  2  0  0  0
  4  5  1  0  0  0
  5  7  1  0  0  0
  5  6  2  0  0  0
  7  8  1  0  0  0
  8  9  2  0  0  0
  8 11  1  0  0  0
 11 12  1  0  0  0
 12 13  1  0  0  0
 13 14  2  0  0  0
 14 15  1  0  0  0
 15 16  2  0  0  0
 16 17  1  0  0  0
 16 18  1  0  0  0
 18 19  1  0  0  0
 18 20  2  0  0  0
 20 13  1  0  0  0
  6  1  1  0  0  0
 30 31  1  0  0  0
 31 32  2  0  0  0
 31 25  1  0  0  0
  7 10  1  0  0  0
M  END
>  <minimizedAffinity>
-4.06515

>  <minimizedRMSD>
1.15961

$$$$
ChemDiv-D483-1231 MCULE-5883937417 MolPort-007-710-897 PubChem-20899027 ZINC000015859186 ZINC15859186


 34 37  0  0  0  0  0  0  0  0999 V2000
   15.7316   -8.7661   13.1214 C   0  0  0  0  0  0  0  0  0  0  0  0
   16.9334   -9.5034   13.4775 N   0  0  0  0  0  0  0  0  0  0  0  0
   17.4624  -10.5791   12.8702 C   0  0  0  0  0  0  0  0  0  0  0  0
   18.5991  -10.9743   13.4774 N   0  0  0  0  0  0  0  0  0  0  0  0
   18.8061  -10.1425   14.4897 N   0  0  0  0  0  0  0  0  0  0  0  0
   17.7930   -9.2549   14.4793 C   0  0  0  0  0  0  0  0  0  0  0  0
   16.8723  -11.2607   11.6770 C   0  0  0  0  0  0  0  0  0  0  0  0
   16.8574  -10.3389   10.4906 C   0  0  0  0  0  0  0  0  0  0  0  0
   15.6512   -9.9513    9.8883 C   0  0  0  0  0  0  0  0  0  0  0  0
   14.3337  -10.4083   10.4170 C   0  0  0  0  0  0  0  0  0  0  0  0
   15.6707   -9.1366    8.8049 N   0  0  0  0  0  0  0  0  0  0  0  0
   16.8367   -8.6835    8.2806 C   0  0  0  0  0  0  0  0  0  0  0  0
   16.8032   -7.8474    7.1616 C   0  0  0  0  0  0  0  0  0  0  0  0
   17.9980   -7.3790    6.6189 C   0  0  0  0  0  0  0  0  0  0  0  0
   19.2105   -7.7481    7.1966 C   0  0  0  0  0  0  0  0  0  0  0  0
   20.4923   -7.2561    6.6284 C   0  0  0  0  0  0  0  0  0  0  0  0
   19.2113   -8.5843    8.3140 C   0  0  0  0  0  0  0  0  0  0  0  0
   18.0388   -9.0436    8.8460 N   0  0  0  0  0  0  0  0  0  0  0  0
   18.0604   -9.8638    9.9423 C   0  0  0  0  0  0  0  0  0  0  0  0
   19.1602  -10.1978   10.4685 O   0  0  0  0  0  0  0  0  0  0  0  0
   17.6297   -7.9163   15.6607 S   0  0  0  0  0  0  0  0  0  0  0  0
   16.7071   -8.9388   16.8516 C   0  0  0  0  0  0  0  0  0  0  0  0
   15.6662   -8.1292   17.5451 C   0  0  0  0  0  0  0  0  0  0  0  0
   14.7619   -7.5785   16.8636 O   0  0  0  0  0  0  0  0  0  0  0  0
   15.7051   -8.0004   18.9728 N   0  0  0  0  0  0  0  0  0  0  0  0
   16.4128   -8.4997   19.4408 H   0  0  0  0  0  0  0  0  0  0  0  0
   14.8203   -7.2197   19.7925 C   0  0  0  0  0  0  0  0  0  0  0  0
   15.3157   -6.5984   20.9543 C   0  0  0  0  0  0  0  0  0  0  0  0
   16.7445   -6.7410   21.3542 C   0  0  0  0  0  0  0  0  0  0  0  0
   14.4653   -5.8307   21.7565 C   0  0  0  0  0  0  0  0  0  0  0  0
   13.1212   -5.6746   21.4103 C   0  0  0  0  0  0  0  0  0  0  0  0
   12.2231   -4.8576   22.2670 C   0  0  0  0  0  0  0  0  0  0  0  0
   12.6222   -6.2862   20.2589 C   0  0  0  0  0  0  0  0  0  0  0  0
   13.4676   -7.0540   19.4545 C   0  0  0  0  0  0  0  0  0  0  0  0
  1  2  1  0  0  0
  2  3  1  0  0  0
  3  7  1  0  0  0
  3  4  2  0  0  0
  7  8  1  0  0  0
  8  9  2  0  0  0
  9 10  1  0  0  0
  9 11  1  0  0  0
 11 12  2  0  0  0
 12 13  1  0  0  0
 13 14  2  0  0  0
 14 15  1  0  0  0
 15 16  1  0  0  0
 15 17  2  0  0  0
 17 18  1  0  0  0
 18 19  1  0  0  0
 18 12  1  0  0  0
 19 20  2  0  0  0
 19  8  1  0  0  0
  4  5  1  0  0  0
  5  6  2  0  0  0
  6 21  1  0  0  0
  6  2  1  0  0  0
 21 22  1  0  0  0
 22 23  1  0  0  0
 23 24  2  0  0  0
 23 25  1  0  0  0
 25 27  1  0  0  0
 27 28  2  0  0  0
 28 29  1  0  0  0
 28 30  1  0  0  0
 30 31  2  0  0  0
 31 32  1  0  0  0
 31 33  1  0  0  0
 33 34  2  0  0  0
 34 27  1  0  0  0
 25 26  1  0  0  0
M  END
>  <minimizedAffinity>
-4.02763

>  <minimizedRMSD>
2.99701

$$$$
ChemDiv-L466-0178 MCULE-6483449919 MolPort-010-752-092 PubChem-53035882 ZINC000064669005 ZINC64669005


 29 32  0  0  0  0  0  0  0  0999 V2000
   15.6764   -8.7253   15.3777 C   0  0  0  0  0  0  0  0  0  0  0  0
   16.1761   -7.6452   14.6449 C   0  0  0  0  0  0  0  0  0  0  0  0
   16.4527   -7.7844   13.2818 C   0  0  0  0  0  0  0  0  0  0  0  0
   16.2323   -9.0074   12.6312 C   0  0  0  0  0  0  0  0  0  0  0  0
   15.7159  -10.0856   13.3659 C   0  0  0  0  0  0  0  0  0  0  0  0
   15.4405   -9.9468   14.7279 C   0  0  0  0  0  0  0  0  0  0  0  0
   16.5518   -9.1518   11.1952 C   0  0  0  0  0  0  0  0  0  0  0  0
   15.8543  -10.0643   10.3878 C   0  0  0  0  0  0  0  0  0  0  0  0
   16.1728  -10.1879    9.0721 N   0  0  0  0  0  0  0  0  0  0  0  0
   17.1605   -9.4387    8.5184 C   0  0  0  0  0  0  0  0  0  0  0  0
   17.4836   -9.5743    7.1657 C   0  0  0  0  0  0  0  0  0  0  0  0
   18.5074   -8.7970    6.6140 C   0  0  0  0  0  0  0  0  0  0  0  0
   19.2060   -7.8841    7.4121 C   0  0  0  0  0  0  0  0  0  0  0  0
   18.8864   -7.7460    8.7672 C   0  0  0  0  0  0  0  0  0  0  0  0
   17.8653   -8.5211    9.3226 C   0  0  0  0  0  0  0  0  0  0  0  0
   17.5439   -8.4022   10.6365 N   0  0  0  0  0  0  0  0  0  0  0  0
   15.4404   -8.5640   16.7490 O   0  0  0  0  0  0  0  0  0  0  0  0
   16.0283   -9.3905   17.7522 C   0  0  0  0  0  0  0  0  0  0  0  0
   18.2707   -8.7002   16.8159 N   0  0  0  0  0  0  0  0  0  0  0  0
   17.4406   -9.7089   17.3939 C   0  0  0  0  0  0  0  0  0  0  0  0
   17.8788  -10.8769   17.5686 O   0  0  0  0  0  0  0  0  0  0  0  0
   18.0200   -7.7547   16.9279 H   0  0  0  0  0  0  0  0  0  0  0  0
   19.4745   -9.0258   16.0674 C   0  0  0  0  0  0  0  0  0  0  0  0
   18.0170  -13.3869   14.3352 C   0  0  0  0  0  0  0  0  0  0  0  0
   18.5325  -11.9925   14.3578 C   0  0  0  0  0  0  0  0  0  0  0  0
   18.8743  -11.2556   13.2410 C   0  0  0  0  0  0  0  0  0  0  0  0
   19.2963  -10.0290   13.7302 C   0  0  0  0  0  0  0  0  0  0  0  0
   19.1776  -10.1247   15.1037 C   0  0  0  0  0  0  0  0  0  0  0  0
   18.7176  -11.2994   15.4520 O   0  0  0  0  0  0  0  0  0  0  0  0
 24 25  1  0  0  0
 25 26  2  0  0  0
 26 27  1  0  0  0
 27 28  2  0  0  0
 28 23  1  0  0  0
 28 29  1  0  0  0
 23 19  1  0  0  0
 19 20  1  0  0  0
 20 21  2  0  0  0
 20 18  1  0  0  0
 18 17  1  0  0  0
 17  1  1  0  0  0
  1  2  2  0  0  0
  2  3  1  0  0  0
  3  4  2  0  0  0
  4  5  1  0  0  0
  4  7  1  0  0  0
  5  6  2  0  0  0
  6  1  1  0  0  0
  7  8  2  0  0  0
  8  9  1  0  0  0
  9 10  2  0  0  0
 10 11  1  0  0  0
 11 12  2  0  0  0
 12 13  1  0  0  0
 13 14  2  0  0  0
 14 15  1  0  0  0
 15 16  2  0  0  0
 15 10  1  0  0  0
 16  7  1  0  0  0
 29 25  1  0  0  0
 19 22  1  0  0  0
M  END
>  <minimizedAffinity>
-4.01554

>  <minimizedRMSD>
1.97418

$$$$
ChemDiv-L466-0210 MCULE-6061185143 MolPort-010-691-509 PubChem-53010889 ZINC000035515006 ZINC35515006


 29 32  0  0  0  0  0  0  0  0999 V2000
   15.5271   -8.9224   14.9236 C   0  0  0  0  0  0  0  0  0  0  0  0
   15.2290  -10.0711   14.1829 C   0  0  0  0  0  0  0  0  0  0  0  0
   15.6080  -10.1630   12.8399 C   0  0  0  0  0  0  0  0  0  0  0  0
   16.2907   -9.1055   12.2164 C   0  0  0  0  0  0  0  0  0  0  0  0
   16.5931   -7.9575   12.9641 C   0  0  0  0  0  0  0  0  0  0  0  0
   16.2144   -7.8654   14.3066 C   0  0  0  0  0  0  0  0  0  0  0  0
   16.6843   -9.1886   10.7935 C   0  0  0  0  0  0  0  0  0  0  0  0
   16.0657  -10.1009    9.9233 C   0  0  0  0  0  0  0  0  0  0  0  0
   16.4357  -10.1501    8.6155 N   0  0  0  0  0  0  0  0  0  0  0  0
   17.3991   -9.3268    8.1302 C   0  0  0  0  0  0  0  0  0  0  0  0
   17.7860   -9.3961    6.7885 C   0  0  0  0  0  0  0  0  0  0  0  0
   18.8086   -8.5643    6.3158 C   0  0  0  0  0  0  0  0  0  0  0  0
   19.4448   -7.6664    7.1826 C   0  0  0  0  0  0  0  0  0  0  0  0
   19.0581   -7.5914    8.5255 C   0  0  0  0  0  0  0  0  0  0  0  0
   18.0328   -8.4161    9.0006 C   0  0  0  0  0  0  0  0  0  0  0  0
   17.6571   -8.3688   10.3048 N   0  0  0  0  0  0  0  0  0  0  0  0
   15.1285   -8.8537   16.2643 O   0  0  0  0  0  0  0  0  0  0  0  0
   15.9834   -8.4025   17.3118 C   0  0  0  0  0  0  0  0  0  0  0  0
   18.3476   -8.6522   17.1993 O   0  0  0  0  0  0  0  0  0  0  0  0
   17.2302   -9.2175   17.3396 C   0  0  0  0  0  0  0  0  0  0  0  0
   17.1445  -10.6367   17.4852 N   0  0  0  0  0  0  0  0  0  0  0  0
   16.2931  -11.0328   17.7809 H   0  0  0  0  0  0  0  0  0  0  0  0
   18.2716  -11.5185   17.2120 C   0  0  0  0  0  0  0  0  0  0  0  0
   18.4782  -11.6318   15.7380 C   0  0  0  0  0  0  0  0  0  0  0  0
   18.0645  -12.7870   15.0613 C   0  0  0  0  0  0  0  0  0  0  0  0
   18.2025  -12.8735   13.6718 C   0  0  0  0  0  0  0  0  0  0  0  0
   18.7469  -11.8020   12.9559 C   0  0  0  0  0  0  0  0  0  0  0  0
   19.1535  -10.6439   13.6286 C   0  0  0  0  0  0  0  0  0  0  0  0
   19.0191  -10.5586   15.0190 C   0  0  0  0  0  0  0  0  0  0  0  0
 19 20  2  0  0  0
 20 18  1  0  0  0
 20 21  1  0  0  0
 18 17  1  0  0  0
 17  1  1  0  0  0
  1  2  2  0  0  0
  2  3  1  0  0  0
  3  4  2  0  0  0
  4  5  1  0  0  0
  4  7  1  0  0  0
  5  6  2  0  0  0
  6  1  1  0  0  0
  7  8  2  0  0  0
  8  9  1  0  0  0
  9 10  2  0  0  0
 10 11  1  0  0  0
 11 12  2  0  0  0
 12 13  1  0  0  0
 13 14  2  0  0  0
 14 15  1  0  0  0
 15 16  2  0  0  0
 15 10  1  0  0  0
 16  7  1  0  0  0
 21 23  1  0  0  0
 23 24  1  0  0  0
 24 25  2  0  0  0
 25 26  1  0  0  0
 26 27  2  0  0  0
 27 28  1  0  0  0
 28 29  2  0  0  0
 29 24  1  0  0  0
 21 22  1  0  0  0
M  END
>  <minimizedAffinity>
-3.99439

>  <minimizedRMSD>
1.87722

$$$$
ChemDiv-L466-0603 MCULE-3243647499 MolPort-010-869-462 PubChem-53112290


 30 33  0  0  0  0  0  0  0  0999 V2000
   15.5382   -8.4672   15.2672 C   0  0  0  0  0  0  0  0  0  0  0  0
   15.3173   -9.7238   14.6837 C   0  0  0  0  0  0  0  0  0  0  0  0
   15.6651   -9.9542   13.3480 C   0  0  0  0  0  0  0  0  0  0  0  0
   16.2391   -8.9318   12.5757 C   0  0  0  0  0  0  0  0  0  0  0  0
   16.4576   -7.6779   13.1650 C   0  0  0  0  0  0  0  0  0  0  0  0
   16.1114   -7.4489   14.5003 C   0  0  0  0  0  0  0  0  0  0  0  0
   16.5879   -9.1564   11.1554 C   0  0  0  0  0  0  0  0  0  0  0  0
   15.9198  -10.1267   10.3911 C   0  0  0  0  0  0  0  0  0  0  0  0
   16.2475  -10.3046    9.0818 N   0  0  0  0  0  0  0  0  0  0  0  0
   17.2127   -9.5522    8.4927 C   0  0  0  0  0  0  0  0  0  0  0  0
   17.5252   -9.7237    7.1396 C   0  0  0  0  0  0  0  0  0  0  0  0
   18.5078   -8.9237    6.5453 C   0  0  0  0  0  0  0  0  0  0  0  0
   19.1765   -7.9532    7.3021 C   0  0  0  0  0  0  0  0  0  0  0  0
   18.8660   -7.7768    8.6560 C   0  0  0  0  0  0  0  0  0  0  0  0
   17.8863   -8.5755    9.2535 C   0  0  0  0  0  0  0  0  0  0  0  0
   17.5591   -8.4062   10.5614 N   0  0  0  0  0  0  0  0  0  0  0  0
   15.2093   -8.2043   16.6042 O   0  0  0  0  0  0  0  0  0  0  0  0
   15.6671   -8.1608   18.9591 C   0  0  0  0  0  0  0  0  0  0  0  0
   15.6556   -9.0049   17.6992 C   0  0  0  0  0  0  0  0  0  0  0  0
   17.0325   -9.5164   17.4286 C   0  0  0  0  0  0  0  0  0  0  0  0
   17.3271  -10.7044   17.7225 O   0  0  0  0  0  0  0  0  0  0  0  0
   17.9983   -8.6592   16.8123 N   0  0  0  0  0  0  0  0  0  0  0  0
   17.8163   -7.6924   16.7762 H   0  0  0  0  0  0  0  0  0  0  0  0
   19.2418   -9.1591   16.2352 C   0  0  0  0  0  0  0  0  0  0  0  0
   18.9525  -10.2889   15.2917 C   0  0  0  0  0  0  0  0  0  0  0  0
   18.4247  -11.4875   15.7844 C   0  0  0  0  0  0  0  0  0  0  0  0
   18.1488  -12.5460   14.9119 C   0  0  0  0  0  0  0  0  0  0  0  0
   18.3964  -12.4083   13.5420 C   0  0  0  0  0  0  0  0  0  0  0  0
   18.9314  -11.2150   13.0455 C   0  0  0  0  0  0  0  0  0  0  0  0
   19.2127  -10.1578   13.9198 C   0  0  0  0  0  0  0  0  0  0  0  0
 19 18  1  0  0  0
 19 17  1  0  0  0
 19 20  1  0  0  0
 17  1  1  0  0  0
  1  2  2  0  0  0
  2  3  1  0  0  0
  3  4  2  0  0  0
  4  5  1  0  0  0
  4  7  1  0  0  0
  5  6  2  0  0  0
  6  1  1  0  0  0
  7  8  2  0  0  0
  8  9  1  0  0  0
  9 10  2  0  0  0
 10 11  1  0  0  0
 11 12  2  0  0  0
 12 13  1  0  0  0
 13 14  2  0  0  0
 14 15  1  0  0  0
 15 16  2  0  0  0
 15 10  1  0  0  0
 16  7  1  0  0  0
 20 21  2  0  0  0
 20 22  1  0  0  0
 22 24  1  0  0  0
 24 25  1  0  0  0
 25 26  2  0  0  0
 26 27  1  0  0  0
 27 28  2  0  0  0
 28 29  1  0  0  0
 29 30  2  0  0  0
 30 25  1  0  0  0
 22 23  1  0  0  0
M  END
>  <minimizedAffinity>
-3.97494

>  <minimizedRMSD>
1.79742

$$$$
ChemDiv-D483-1306 MCULE-3768279770 MolPort-007-710-913 PubChem-20899043 ZINC000015859205 ZINC15859205


 33 36  0  0  0  0  0  0  0  0999 V2000
   16.2786   -8.3934   13.9315 C   0  0  0  0  0  0  0  0  0  0  0  0
   17.1696   -9.2429   13.1572 N   0  0  0  0  0  0  0  0  0  0  0  0
   17.3868   -9.2340   11.8313 C   0  0  0  0  0  0  0  0  0  0  0  0
   18.3011  -10.1598   11.4787 N   0  0  0  0  0  0  0  0  0  0  0  0
   18.6785  -10.7741   12.5921 N   0  0  0  0  0  0  0  0  0  0  0  0
   17.9890  -10.2097   13.6023 C   0  0  0  0  0  0  0  0  0  0  0  0
   16.7049   -8.3217   10.8620 C   0  0  0  0  0  0  0  0  0  0  0  0
   17.1766   -8.5857    9.4599 C   0  0  0  0  0  0  0  0  0  0  0  0
   16.6176   -9.6151    8.6883 C   0  0  0  0  0  0  0  0  0  0  0  0
   15.5120  -10.4685    9.2111 C   0  0  0  0  0  0  0  0  0  0  0  0
   17.0783   -9.8427    7.4337 N   0  0  0  0  0  0  0  0  0  0  0  0
   18.0792   -9.0980    6.9013 C   0  0  0  0  0  0  0  0  0  0  0  0
   18.5198   -9.3738    5.6043 C   0  0  0  0  0  0  0  0  0  0  0  0
   19.5468   -8.6111    5.0518 C   0  0  0  0  0  0  0  0  0  0  0  0
   20.1224   -7.5846    5.7969 C   0  0  0  0  0  0  0  0  0  0  0  0
   21.2191   -6.7641    5.2208 C   0  0  0  0  0  0  0  0  0  0  0  0
   19.6603   -7.3331    7.0894 C   0  0  0  0  0  0  0  0  0  0  0  0
   18.6517   -8.0808    7.6304 N   0  0  0  0  0  0  0  0  0  0  0  0
   18.2112   -7.8179    8.9000 C   0  0  0  0  0  0  0  0  0  0  0  0
   18.7305   -6.8842    9.5755 O   0  0  0  0  0  0  0  0  0  0  0  0
   18.1566  -10.7007   15.3185 S   0  0  0  0  0  0  0  0  0  0  0  0
   16.3936  -10.4248   15.6790 C   0  0  0  0  0  0  0  0  0  0  0  0
   16.2291   -9.4061   16.7537 C   0  0  0  0  0  0  0  0  0  0  0  0
   17.2531   -8.9402   17.3192 O   0  0  0  0  0  0  0  0  0  0  0  0
   14.9132   -8.9682   17.1185 N   0  0  0  0  0  0  0  0  0  0  0  0
   14.1631   -9.3513   16.6088 H   0  0  0  0  0  0  0  0  0  0  0  0
   14.5778   -8.0298   18.1494 C   0  0  0  0  0  0  0  0  0  0  0  0
   13.5216   -7.1164   18.0077 C   0  0  0  0  0  0  0  0  0  0  0  0
   13.2257   -6.2135   19.0330 C   0  0  0  0  0  0  0  0  0  0  0  0
   12.2047   -5.3354   18.8884 F   0  0  0  0  0  0  0  0  0  0  0  0
   13.9843   -6.2165   20.2065 C   0  0  0  0  0  0  0  0  0  0  0  0
   15.0382   -7.1224   20.3539 C   0  0  0  0  0  0  0  0  0  0  0  0
   15.3329   -8.0253   19.3277 C   0  0  0  0  0  0  0  0  0  0  0  0
  1  2  1  0  0  0
  2  3  1  0  0  0
  3  7  1  0  0  0
  3  4  2  0  0  0
  7  8  1  0  0  0
  8  9  2  0  0  0
  9 10  1  0  0  0
  9 11  1  0  0  0
 11 12  2  0  0  0
 12 13  1  0  0  0
 13 14  2  0  0  0
 14 15  1  0  0  0
 15 16  1  0  0  0
 15 17  2  0  0  0
 17 18  1  0  0  0
 18 19  1  0  0  0
 18 12  1  0  0  0
 19 20  2  0  0  0
 19  8  1  0  0  0
  4  5  1  0  0  0
  5  6  2  0  0  0
  6 21  1  0  0  0
  6  2  1  0  0  0
 21 22  1  0  0  0
 22 23  1  0  0  0
 23 24  2  0  0  0
 23 25  1  0  0  0
 25 27  1  0  0  0
 27 28  2  0  0  0
 28 29  1  0  0  0
 29 30  1  0  0  0
 29 31  2  0  0  0
 31 32  1  0  0  0
 32 33  2  0  0  0
 33 27  1  0  0  0
 25 26  1  0  0  0
M  END
>  <minimizedAffinity>
-3.96830

>  <minimizedRMSD>
2.56313

$$$$
ChemDiv-F813-4345 MCULE-9230379453 MolPort-009-709-092 PubChem-45501447


 33 36  0  0  0  0  0  0  0  0999 V2000
   18.5654   -8.0528   10.5881 S   0  0  0  0  0  0  0  0  0  0  0  0
   19.4616   -7.7389    5.7458 C   0  0  0  0  0  0  0  0  0  0  0  0
   18.4394   -8.6029    5.5197 N   0  0  0  0  0  0  0  0  0  0  0  0
   17.8623   -8.9755    6.6891 C   0  0  0  0  0  0  0  0  0  0  0  0
   16.8160   -9.8346    6.7707 N   0  0  0  0  0  0  0  0  0  0  0  0
   16.3032  -10.1499    7.9958 C   0  0  0  0  0  0  0  0  0  0  0  0
   16.8369   -9.6079    9.1322 N   0  0  0  0  0  0  0  0  0  0  0  0
   17.8902   -8.7440    9.0781 C   0  0  0  0  0  0  0  0  0  0  0  0
   18.4084   -8.4216    7.8284 C   0  0  0  0  0  0  0  0  0  0  0  0
   19.6795   -7.4102    7.3995 S   0  0  0  0  0  0  0  0  0  0  0  0
   19.6835   -5.4759    1.3770 C   0  0  0  0  0  0  0  0  0  0  0  0
   20.0096   -5.5633    2.8530 C   0  0  0  0  0  0  0  0  0  0  0  0
   21.4771   -5.1704    3.0880 C   0  0  0  0  0  0  0  0  0  0  0  0
   22.3233   -6.3089    3.6559 C   0  0  0  0  0  0  0  0  0  0  0  0
   21.6695   -6.8695    4.9169 C   0  0  0  0  0  0  0  0  0  0  0  0
   20.2532   -7.1745    4.6922 N   0  0  0  0  0  0  0  0  0  0  0  0
   19.6544   -6.9570    3.3757 C   0  0  0  0  0  0  0  0  0  0  0  0
   19.2222   -9.6530   11.1580 C   0  0  0  0  0  0  0  0  0  0  0  0
   18.4174  -10.1772   12.2970 C   0  0  0  0  0  0  0  0  0  0  0  0
   17.3618  -10.8206   12.0577 O   0  0  0  0  0  0  0  0  0  0  0  0
   18.8619   -9.9470   13.6409 N   0  0  0  0  0  0  0  0  0  0  0  0
   19.7141   -9.4649   13.7433 H   0  0  0  0  0  0  0  0  0  0  0  0
   18.2016  -10.3419   14.8548 C   0  0  0  0  0  0  0  0  0  0  0  0
   17.0923   -9.6031   15.3409 C   0  0  0  0  0  0  0  0  0  0  0  0
   16.4681  -10.0162   16.5290 C   0  0  0  0  0  0  0  0  0  0  0  0
   16.9212  -11.1345   17.2292 C   0  0  0  0  0  0  0  0  0  0  0  0
   18.0094  -11.8601   16.7499 C   0  0  0  0  0  0  0  0  0  0  0  0
   18.6432  -11.4657   15.5719 C   0  0  0  0  0  0  0  0  0  0  0  0
   16.5534   -8.4055   14.6488 C   0  0  0  0  0  0  0  0  0  0  0  0
   16.7673   -7.1070   15.1963 N   0  0  0  0  0  0  0  0  0  0  0  0
   15.9022   -8.5095   13.5760 O   0  0  0  0  0  0  0  0  0  0  0  0
   17.2737   -7.0034   16.0342 H   0  0  0  0  0  0  0  0  0  0  0  0
   16.4086   -6.3137   14.7367 H   0  0  0  0  0  0  0  0  0  0  0  0
 12 11  1  0  0  0
 12 13  1  0  0  0
 13 14  1  0  0  0
 14 15  1  0  0  0
 15 16  1  0  0  0
 16 17  1  0  0  0
 16  2  1  0  0  0
 17 12  1  0  0  0
  2  3  2  0  0  0
  3  4  1  0  0  0
  4  5  2  0  0  0
  5  6  1  0  0  0
  6  7  2  0  0  0
  7  8  1  0  0  0
  8  1  1  0  0  0
  8  9  2  0  0  0
  1 18  1  0  0  0
 18 19  1  0  0  0
 19 20  2  0  0  0
 19 21  1  0  0  0
 21 23  1  0  0  0
 23 24  2  0  0  0
 24 25  1  0  0  0
 24 29  1  0  0  0
 25 26  2  0  0  0
 26 27  1  0  0  0
 27 28  2  0  0  0
 28 23  1  0  0  0
 29 30  1  0  0  0
 29 31  2  0  0  0
  9 10  1  0  0  0
  9  4  1  0  0  0
 10  2  1  0  0  0
 21 22  1  0  0  0
 30 32  1  0  0  0
 30 33  1  0  0  0
M  END
>  <minimizedAffinity>
-3.86393

>  <minimizedRMSD>
1.84100

$$$$
ChemDiv-G756-0385 MCULE-5642956579 MolPort-010-744-646 PubChem-50802171 ZINC000033268564 ZINC33268564


 36 40  0  0  0  0  0  0  0  0999 V2000
   18.6654  -12.6898   14.0050 C   0  0  0  0  0  0  0  0  0  0  0  0
   18.0392  -11.6861   14.9108 C   0  0  0  0  0  0  0  0  0  0  0  0
   17.9840  -12.0073   16.2708 C   0  0  0  0  0  0  0  0  0  0  0  0
   17.4090  -11.1271   17.1878 C   0  0  0  0  0  0  0  0  0  0  0  0
   16.8799   -9.9097   16.7588 C   0  0  0  0  0  0  0  0  0  0  0  0
   16.9310   -9.5831   15.3974 C   0  0  0  0  0  0  0  0  0  0  0  0
   17.5034  -10.4504   14.4597 C   0  0  0  0  0  0  0  0  0  0  0  0
   16.2923   -9.0319   17.7282 N   0  0  0  0  0  0  0  0  0  0  0  0
   15.6365   -7.7837   17.4675 C   0  0  0  0  0  0  0  0  0  0  0  0
   15.5393   -7.3271   16.2978 O   0  0  0  0  0  0  0  0  0  0  0  0
   16.3443   -9.3153   18.6696 H   0  0  0  0  0  0  0  0  0  0  0  0
   15.0308   -7.0263   18.5983 C   0  0  0  0  0  0  0  0  0  0  0  0
   13.6290   -7.3899   18.7535 N   0  0  0  0  0  0  0  0  0  0  0  0
   12.5813   -7.1438   17.8133 C   0  0  0  0  0  0  0  0  0  0  0  0
   12.6730   -6.3476   16.8416 O   0  0  0  0  0  0  0  0  0  0  0  0
   11.4227   -7.9695   18.1324 C   0  0  0  0  0  0  0  0  0  0  0  0
   10.1783   -8.0668   17.5128 C   0  0  0  0  0  0  0  0  0  0  0  0
    9.2488   -8.9743   18.0513 C   0  0  0  0  0  0  0  0  0  0  0  0
    9.5785   -9.7569   19.1785 C   0  0  0  0  0  0  0  0  0  0  0  0
   10.8426   -9.6435   19.7839 C   0  0  0  0  0  0  0  0  0  0  0  0
   11.7450   -8.7347   19.2344 C   0  0  0  0  0  0  0  0  0  0  0  0
   13.1104   -8.4010   19.6196 C   0  0  0  0  0  0  0  0  0  0  0  0
   13.7606   -8.9326   20.5584 O   0  0  0  0  0  0  0  0  0  0  0  0
   17.5009  -10.0202   13.1230 O   0  0  0  0  0  0  0  0  0  0  0  0
   18.6331   -9.5500   12.4051 C   0  0  0  0  0  0  0  0  0  0  0  0
   18.2732   -9.3600   10.9751 C   0  0  0  0  0  0  0  0  0  0  0  0
   17.0945   -9.9062   10.4759 C   0  0  0  0  0  0  0  0  0  0  0  0
   16.7692   -9.6932    9.1370 C   0  0  0  0  0  0  0  0  0  0  0  0
   15.7030  -10.1912    8.6811 O   0  0  0  0  0  0  0  0  0  0  0  0
   17.5989   -8.9526    8.3376 N   0  0  0  0  0  0  0  0  0  0  0  0
   17.2794   -8.7444    7.0251 C   0  0  0  0  0  0  0  0  0  0  0  0
   18.1131   -7.9901    6.1971 C   0  0  0  0  0  0  0  0  0  0  0  0
   19.2837   -7.4445    6.7209 C   0  0  0  0  0  0  0  0  0  0  0  0
   19.6091   -7.6566    8.0592 C   0  0  0  0  0  0  0  0  0  0  0  0
   18.7547   -8.4166    8.8622 C   0  0  0  0  0  0  0  0  0  0  0  0
   19.0748   -8.6233   10.1654 N   0  0  0  0  0  0  0  0  0  0  0  0
  1  2  1  0  0  0
  2  3  2  0  0  0
  3  4  1  0  0  0
  4  5  2  0  0  0
  5  8  1  0  0  0
  5  6  1  0  0  0
  8  9  1  0  0  0
  9 10  2  0  0  0
  9 12  1  0  0  0
 12 13  1  0  0  0
 13 14  1  0  0  0
 14 15  2  0  0  0
 14 16  1  0  0  0
 16 17  2  0  0  0
 17 18  1  0  0  0
 18 19  2  0  0  0
 19 20  1  0  0  0
 20 21  2  0  0  0
 21 22  1  0  0  0
 21 16  1  0  0  0
 22 23  2  0  0  0
 22 13  1  0  0  0
  6  7  2  0  0  0
  7 24  1  0  0  0
  7  2  1  0  0  0
 24 25  1  0  0  0
 25 26  1  0  0  0
 26 27  2  0  0  0
 27 28  1  0  0  0
 28 29  2  0  0  0
 28 30  1  0  0  0
 30 31  1  0  0  0
 31 32  2  0  0  0
 32 33  1  0  0  0
 33 34  2  0  0  0
 34 35  1  0  0  0
 35 36  2  0  0  0
 35 30  1  0  0  0
 36 26  1  0  0  0
  8 11  1  0  0  0
M  END
>  <minimizedAffinity>
-3.84731

>  <minimizedRMSD>
0.66221

$$$$
ChemDiv-G357-1744 CSC047895866 MCULE-9938199263 MolPort-007-847-631 PubChem-45678995 ZINC000010873648 ZINC10873648


 26 28  0  0  0  0  0  0  0  0999 V2000
   17.4559  -10.6904   14.9513 C   0  0  0  0  0  0  0  0  0  0  0  0
   18.2483  -11.5946   15.3358 O   0  0  0  0  0  0  0  0  0  0  0  0
   15.6029   -8.0902   17.8101 C   0  0  0  0  0  0  0  0  0  0  0  0
   15.3467   -7.9379   16.4393 C   0  0  0  0  0  0  0  0  0  0  0  0
   15.9518   -8.7868   15.5086 C   0  0  0  0  0  0  0  0  0  0  0  0
   16.8209   -9.7990   15.9353 C   0  0  0  0  0  0  0  0  0  0  0  0
   17.0767   -9.9510   17.3052 C   0  0  0  0  0  0  0  0  0  0  0  0
   16.4708   -9.1012   18.2350 C   0  0  0  0  0  0  0  0  0  0  0  0
   13.1763   -5.9510   19.9600 C   0  0  0  0  0  0  0  0  0  0  0  0
   13.6243   -6.8451   18.8612 C   0  0  0  0  0  0  0  0  0  0  0  0
   12.7875   -7.2413   18.0078 O   0  0  0  0  0  0  0  0  0  0  0  0
   15.0008   -7.2387   18.7946 N   0  0  0  0  0  0  0  0  0  0  0  0
   15.5944   -6.8882   19.4975 H   0  0  0  0  0  0  0  0  0  0  0  0
   17.1770  -10.5304   13.5921 O   0  0  0  0  0  0  0  0  0  0  0  0
   17.9507  -11.1676   12.5862 C   0  0  0  0  0  0  0  0  0  0  0  0
   17.8749  -10.3808   11.3272 C   0  0  0  0  0  0  0  0  0  0  0  0
   16.7235  -10.4468   10.5313 C   0  0  0  0  0  0  0  0  0  0  0  0
   16.6624   -9.6760    9.3656 C   0  0  0  0  0  0  0  0  0  0  0  0
   15.6337   -9.7307    8.6405 O   0  0  0  0  0  0  0  0  0  0  0  0
   17.7239   -8.8766    9.0399 N   0  0  0  0  0  0  0  0  0  0  0  0
   17.8617   -8.0516    7.9553 C   0  0  0  0  0  0  0  0  0  0  0  0
   16.8238   -7.8854    6.8962 C   0  0  0  0  0  0  0  0  0  0  0  0
   19.0691   -7.3494    7.8934 C   0  0  0  0  0  0  0  0  0  0  0  0
   19.9807   -7.7891    9.2499 S   0  0  0  0  0  0  0  0  0  0  0  0
   18.8144   -8.8330    9.8372 C   0  0  0  0  0  0  0  0  0  0  0  0
   18.9060   -9.5663   10.9733 N   0  0  0  0  0  0  0  0  0  0  0  0
  9 10  1  0  0  0
 10 11  2  0  0  0
 10 12  1  0  0  0
 12  3  1  0  0  0
  3  4  2  0  0  0
  4  5  1  0  0  0
  5  6  2  0  0  0
  6  7  1  0  0  0
  6  1  1  0  0  0
  7  8  2  0  0  0
  8  3  1  0  0  0
  1  2  2  0  0  0
  1 14  1  0  0  0
 14 15  1  0  0  0
 15 16  1  0  0  0
 16 17  2  0  0  0
 17 18  1  0  0  0
 18 19  2  0  0  0
 18 20  1  0  0  0
 20 21  1  0  0  0
 21 22  1  0  0  0
 21 23  2  0  0  0
 23 24  1  0  0  0
 24 25  1  0  0  0
 25 26  2  0  0  0
 25 20  1  0  0  0
 26 16  1  0  0  0
 12 13  1  0  0  0
M  END
>  <minimizedAffinity>
-3.83168

>  <minimizedRMSD>
1.64505

$$$$
ChemDiv-D715-1235 MCULE-3243175960 MolPort-004-858-592 PubChem-42536531 ZINC000012323738 ZINC12323738


 28 30  0  0  0  0  0  0  0  0999 V2000
   16.5781   -9.8161   10.2883 C   0  0  0  0  0  0  0  0  0  0  0  0
   17.3652   -9.0202    9.3590 N   0  0  0  0  0  0  0  0  0  0  0  0
   17.3676   -9.2742    7.9532 C   0  0  0  0  0  0  0  0  0  0  0  0
   16.6648  -10.2048    7.4742 O   0  0  0  0  0  0  0  0  0  0  0  0
   17.9142   -8.2824    9.7105 H   0  0  0  0  0  0  0  0  0  0  0  0
   18.1928   -8.4510    7.0626 C   0  0  0  0  0  0  0  0  0  0  0  0
   18.2853   -7.0640    7.1152 C   0  0  0  0  0  0  0  0  0  0  0  0
   19.1378   -6.7284    6.1374 N   0  0  0  0  0  0  0  0  0  0  0  0
   19.5698   -5.4982    5.7668 C   0  0  0  0  0  0  0  0  0  0  0  0
   20.4739   -5.4135    4.6984 C   0  0  0  0  0  0  0  0  0  0  0  0
   21.0699   -3.8551    4.1705 Cl  0  0  0  0  0  0  0  0  0  0  0  0
   20.8990   -6.5905    4.0534 C   0  0  0  0  0  0  0  0  0  0  0  0
   20.4244   -7.8439    4.4724 C   0  0  0  0  0  0  0  0  0  0  0  0
   19.5282   -7.8646    5.5387 C   0  0  0  0  0  0  0  0  0  0  0  0
   18.9697   -8.9632    6.0762 N   0  0  0  0  0  0  0  0  0  0  0  0
   17.4684  -10.8259   10.9969 C   0  0  0  0  0  0  0  0  0  0  0  0
   17.6580  -10.0289   15.2103 C   0  0  0  0  0  0  0  0  0  0  0  0
   18.4602  -11.0281   14.6479 C   0  0  0  0  0  0  0  0  0  0  0  0
   18.3938  -11.2914   13.2767 C   0  0  0  0  0  0  0  0  0  0  0  0
   17.5242  -10.5565   12.4632 C   0  0  0  0  0  0  0  0  0  0  0  0
   16.7275   -9.5516   13.0236 C   0  0  0  0  0  0  0  0  0  0  0  0
   16.7943   -9.2889   14.3950 C   0  0  0  0  0  0  0  0  0  0  0  0
   17.9438  -11.1680   17.8045 N   0  0  0  0  0  0  0  0  0  0  0  0
   17.7502   -9.6911   16.9288 S   0  0  0  0  0  0  0  0  0  0  0  0
   18.9308   -8.8041   17.2077 O   0  0  0  0  0  0  0  0  0  0  0  0
   16.4901   -9.0054   17.3753 O   0  0  0  0  0  0  0  0  0  0  0  0
   17.9969  -10.9667   18.8030 H   0  0  0  0  0  0  0  0  0  0  0  0
   18.8019  -11.6309   17.5048 H   0  0  0  0  0  0  0  0  0  0  0  0
 23 24  1  0  0  0
 24 25  2  0  0  0
 24 26  2  0  0  0
 24 17  1  0  0  0
 17 18  2  0  0  0
 18 19  1  0  0  0
 19 20  2  0  0  0
 20 16  1  0  0  0
 20 21  1  0  0  0
 16  1  1  0  0  0
  1  2  1  0  0  0
  2  3  1  0  0  0
  3  4  2  0  0  0
  3  6  1  0  0  0
  6  7  2  0  0  0
  7  8  1  0  0  0
  8  9  1  0  0  0
  9 10  2  0  0  0
 10 11  1  0  0  0
 10 12  1  0  0  0
 12 13  2  0  0  0
 13 14  1  0  0  0
 14 15  2  0  0  0
 14  8  1  0  0  0
 15  6  1  0  0  0
 21 22  2  0  0  0
 22 17  1  0  0  0
 23 27  1  0  0  0
 23 28  1  0  0  0
  2  5  1  0  0  0
M  END
>  <minimizedAffinity>
-3.81686

>  <minimizedRMSD>
3.03878

$$$$
ChemDiv-D483-1546 MCULE-5229166800 MolPort-007-710-945 PubChem-20899075 ZINC000015859238


 32 35  0  0  0  0  0  0  0  0999 V2000
   16.4147   -9.6094   13.1006 C   0  0  0  0  0  0  0  0  0  0  0  0
   15.8439   -8.3918   13.1934 N   0  0  0  0  0  0  0  0  0  0  0  0
   16.0673   -7.9530   14.4253 N   0  0  0  0  0  0  0  0  0  0  0  0
   16.7682   -8.9121   15.0603 C   0  0  0  0  0  0  0  0  0  0  0  0
   17.0033   -9.9618   14.2560 N   0  0  0  0  0  0  0  0  0  0  0  0
   17.7055  -11.1957   14.5714 C   0  0  0  0  0  0  0  0  0  0  0  0
   16.3926  -10.4503   11.8640 C   0  0  0  0  0  0  0  0  0  0  0  0
   17.2817   -8.9401    8.5139 N   0  0  0  0  0  0  0  0  0  0  0  0
   16.6920   -8.7176    7.3011 C   0  0  0  0  0  0  0  0  0  0  0  0
   17.3876   -8.0884    6.2692 C   0  0  0  0  0  0  0  0  0  0  0  0
   18.7020   -7.6824    6.4818 C   0  0  0  0  0  0  0  0  0  0  0  0
   19.3093   -7.9060    7.7157 C   0  0  0  0  0  0  0  0  0  0  0  0
   20.7180   -7.4623    7.9206 C   0  0  0  0  0  0  0  0  0  0  0  0
   18.5818   -8.5427    8.7361 C   0  0  0  0  0  0  0  0  0  0  0  0
   19.1629   -8.7669    9.9442 N   0  0  0  0  0  0  0  0  0  0  0  0
   18.4947   -9.3763   10.9533 C   0  0  0  0  0  0  0  0  0  0  0  0
   19.1987   -9.5943   12.2498 C   0  0  0  0  0  0  0  0  0  0  0  0
   17.1706   -9.7933   10.7590 C   0  0  0  0  0  0  0  0  0  0  0  0
   16.5742   -9.5603    9.5093 C   0  0  0  0  0  0  0  0  0  0  0  0
   15.3812   -9.9286    9.3107 O   0  0  0  0  0  0  0  0  0  0  0  0
   17.3095   -8.7867   16.7647 S   0  0  0  0  0  0  0  0  0  0  0  0
   15.6748   -9.2391   17.4255 C   0  0  0  0  0  0  0  0  0  0  0  0
   15.1023   -8.1194   18.2245 C   0  0  0  0  0  0  0  0  0  0  0  0
   14.6259   -7.1191   17.6259 O   0  0  0  0  0  0  0  0  0  0  0  0
   15.0924   -8.2041   19.6559 N   0  0  0  0  0  0  0  0  0  0  0  0
   15.4493   -9.0320   20.0516 H   0  0  0  0  0  0  0  0  0  0  0  0
   14.6164   -7.2075   20.5704 C   0  0  0  0  0  0  0  0  0  0  0  0
   15.5181   -6.6419   21.4790 C   0  0  0  0  0  0  0  0  0  0  0  0
   15.0922   -5.6645   22.3834 C   0  0  0  0  0  0  0  0  0  0  0  0
   13.7588   -5.2458   22.3838 C   0  0  0  0  0  0  0  0  0  0  0  0
   12.8518   -5.8042   21.4792 C   0  0  0  0  0  0  0  0  0  0  0  0
   13.2790   -6.7812   20.5753 C   0  0  0  0  0  0  0  0  0  0  0  0
  8  9  1  0  0  0
  9 10  2  0  0  0
 10 11  1  0  0  0
 11 12  2  0  0  0
 12 13  1  0  0  0
 12 14  1  0  0  0
 14 15  2  0  0  0
 15 16  1  0  0  0
 16 17  1  0  0  0
 16 18  2  0  0  0
 18  7  1  0  0  0
  7  1  1  0  0  0
  1  2  2  0  0  0
  2  3  1  0  0  0
  3  4  2  0  0  0
  4 21  1  0  0  0
 21 22  1  0  0  0
 22 23  1  0  0  0
 23 24  2  0  0  0
 23 25  1  0  0  0
 25 27  1  0  0  0
 27 28  2  0  0  0
 28 29  1  0  0  0
 29 30  2  0  0  0
 30 31  1  0  0  0
 31 32  2  0  0  0
  4  5  1  0  0  0
  5  6  1  0  0  0
 18 19  1  0  0  0
 19 20  2  0  0  0
 14  8  1  0  0  0
  5  1  1  0  0  0
 19  8  1  0  0  0
 32 27  1  0  0  0
 25 26  1  0  0  0
M  END
>  <minimizedAffinity>
-3.77628

>  <minimizedRMSD>
2.86526

$$$$
ChemDiv-D483-1632 MCULE-3074346535 MolPort-007-710-968 PubChem-20899097 ZINC000015859262


 33 36  0  0  0  0  0  0  0  0999 V2000
   16.5115   -9.6191   13.0954 C   0  0  0  0  0  0  0  0  0  0  0  0
   15.9378   -8.4080   13.2402 N   0  0  0  0  0  0  0  0  0  0  0  0
   16.2234   -7.9885   14.4657 N   0  0  0  0  0  0  0  0  0  0  0  0
   16.9642   -8.9521   15.0453 C   0  0  0  0  0  0  0  0  0  0  0  0
   17.1646   -9.9859   14.2110 N   0  0  0  0  0  0  0  0  0  0  0  0
   17.8903  -11.2195   14.4688 C   0  0  0  0  0  0  0  0  0  0  0  0
   16.4266  -10.4385   11.8471 C   0  0  0  0  0  0  0  0  0  0  0  0
   17.2567   -8.9376    8.4760 N   0  0  0  0  0  0  0  0  0  0  0  0
   16.6475   -8.7208    7.2715 C   0  0  0  0  0  0  0  0  0  0  0  0
   17.3250   -8.0929    6.2266 C   0  0  0  0  0  0  0  0  0  0  0  0
   18.6423   -7.6842    6.4168 C   0  0  0  0  0  0  0  0  0  0  0  0
   19.2683   -7.8999    7.6427 C   0  0  0  0  0  0  0  0  0  0  0  0
   20.6831   -7.4615    7.8213 C   0  0  0  0  0  0  0  0  0  0  0  0
   18.5582   -8.5338    8.6770 C   0  0  0  0  0  0  0  0  0  0  0  0
   19.1596   -8.7537    9.8760 N   0  0  0  0  0  0  0  0  0  0  0  0
   18.5097   -9.3605   10.8983 C   0  0  0  0  0  0  0  0  0  0  0  0
   19.2353   -9.5697   12.1844 C   0  0  0  0  0  0  0  0  0  0  0  0
   17.1841   -9.7832   10.7264 C   0  0  0  0  0  0  0  0  0  0  0  0
   16.5677   -9.5584    9.4841 C   0  0  0  0  0  0  0  0  0  0  0  0
   15.3741   -9.9343    9.3040 O   0  0  0  0  0  0  0  0  0  0  0  0
   17.5978   -8.8479   16.7198 S   0  0  0  0  0  0  0  0  0  0  0  0
   16.0321   -9.4053   17.4653 C   0  0  0  0  0  0  0  0  0  0  0  0
   15.2547   -8.2493   17.9940 C   0  0  0  0  0  0  0  0  0  0  0  0
   14.8658   -7.3567   17.1959 O   0  0  0  0  0  0  0  0  0  0  0  0
   14.9599   -8.1733   19.3955 N   0  0  0  0  0  0  0  0  0  0  0  0
   15.3031   -8.9035   19.9598 H   0  0  0  0  0  0  0  0  0  0  0  0
   14.2162   -7.1421   20.0586 C   0  0  0  0  0  0  0  0  0  0  0  0
   14.0453   -7.2187   21.4457 C   0  0  0  0  0  0  0  0  0  0  0  0
   13.3181   -6.2356   22.1245 C   0  0  0  0  0  0  0  0  0  0  0  0
   12.7559   -5.1683   21.4178 C   0  0  0  0  0  0  0  0  0  0  0  0
   12.9198   -5.0855   20.0324 C   0  0  0  0  0  0  0  0  0  0  0  0
   12.3680   -4.0572   19.3437 F   0  0  0  0  0  0  0  0  0  0  0  0
   13.6477   -6.0685   19.3556 C   0  0  0  0  0  0  0  0  0  0  0  0
  8  9  1  0  0  0
  9 10  2  0  0  0
 10 11  1  0  0  0
 11 12  2  0  0  0
 12 13  1  0  0  0
 12 14  1  0  0  0
 14 15  2  0  0  0
 15 16  1  0  0  0
 16 17  1  0  0  0
 16 18  2  0  0  0
 18  7  1  0  0  0
  7  1  1  0  0  0
  1  2  2  0  0  0
  2  3  1  0  0  0
  3  4  2  0  0  0
  4 21  1  0  0  0
 21 22  1  0  0  0
 22 23  1  0  0  0
 23 24  2  0  0  0
 23 25  1  0  0  0
 25 27  1  0  0  0
 27 28  2  0  0  0
 28 29  1  0  0  0
 29 30  2  0  0  0
 30 31  1  0  0  0
 31 32  1  0  0  0
 31 33  2  0  0  0
  4  5  1  0  0  0
  5  6  1  0  0  0
 18 19  1  0  0  0
 19 20  2  0  0  0
 14  8  1  0  0  0
  5  1  1  0  0  0
 19  8  1  0  0  0
 33 27  1  0  0  0
 25 26  1  0  0  0
M  END
>  <minimizedAffinity>
-3.68011

>  <minimizedRMSD>
2.99152

$$$$
ChemDiv-D103-1620 CHEMBL1454071 MCULE-7893789107 PubChem-4898889 ZINC000008612273


 30 32  0  0  0  0  0  0  0  0999 V2000
   17.5212   -9.2657   14.5468 N   0  0  0  0  0  0  0  0  0  0  0  0
   17.6227  -10.2991   13.5631 C   0  0  0  0  0  0  0  0  0  0  0  0
   17.9110  -11.4777   13.9086 O   0  0  0  0  0  0  0  0  0  0  0  0
   17.3413   -8.3457   14.2460 H   0  0  0  0  0  0  0  0  0  0  0  0
   17.3937   -9.9770   12.1477 C   0  0  0  0  0  0  0  0  0  0  0  0
   18.3406   -9.3499   11.4567 O   0  0  0  0  0  0  0  0  0  0  0  0
   18.2041   -9.0261   10.1749 C   0  0  0  0  0  0  0  0  0  0  0  0
   19.2527   -8.3678    9.5292 C   0  0  0  0  0  0  0  0  0  0  0  0
   19.1415   -8.0148    8.1858 C   0  0  0  0  0  0  0  0  0  0  0  0
   20.2622   -7.3140    7.5072 C   0  0  0  0  0  0  0  0  0  0  0  0
   17.9790   -8.3179    7.4781 C   0  0  0  0  0  0  0  0  0  0  0  0
   16.9139   -8.9763    8.0998 C   0  0  0  0  0  0  0  0  0  0  0  0
   15.7103   -9.2586    7.2637 C   0  0  0  0  0  0  0  0  0  0  0  0
   17.0138   -9.3422    9.4689 C   0  0  0  0  0  0  0  0  0  0  0  0
   15.9940  -10.0087   10.1857 C   0  0  0  0  0  0  0  0  0  0  0  0
   14.9028  -10.3304    9.6455 O   0  0  0  0  0  0  0  0  0  0  0  0
   16.1907  -10.3238   11.5279 C   0  0  0  0  0  0  0  0  0  0  0  0
   17.6724   -9.5145   15.9740 C   0  0  0  0  0  0  0  0  0  0  0  0
   14.5128   -7.6196   18.1748 C   0  0  0  0  0  0  0  0  0  0  0  0
   15.6291   -8.1300   18.8472 C   0  0  0  0  0  0  0  0  0  0  0  0
   16.6606   -8.7423   18.1294 C   0  0  0  0  0  0  0  0  0  0  0  0
   16.5793   -8.8459   16.7369 C   0  0  0  0  0  0  0  0  0  0  0  0
   15.4603   -8.3421   16.0642 C   0  0  0  0  0  0  0  0  0  0  0  0
   14.4291   -7.7297   16.7824 C   0  0  0  0  0  0  0  0  0  0  0  0
   13.2121   -6.8584   19.0719 S   0  0  0  0  0  0  0  0  0  0  0  0
   13.8011   -6.3260   20.6067 N   0  0  0  0  0  0  0  0  0  0  0  0
   12.6869   -5.6827   18.2973 O   0  0  0  0  0  0  0  0  0  0  0  0
   12.1008   -7.8462   19.2946 O   0  0  0  0  0  0  0  0  0  0  0  0
   13.0434   -5.8837   21.1269 H   0  0  0  0  0  0  0  0  0  0  0  0
   14.5553   -5.6536   20.4668 H   0  0  0  0  0  0  0  0  0  0  0  0
 25 26  1  0  0  0
 25 27  2  0  0  0
 25 28  2  0  0  0
 25 19  1  0  0  0
 19 20  2  0  0  0
 20 21  1  0  0  0
 21 22  2  0  0  0
 22 23  1  0  0  0
 23 24  2  0  0  0
 22 18  1  0  0  0
 18  1  1  0  0  0
  1  2  1  0  0  0
  2  3  2  0  0  0
  2  5  1  0  0  0
  5  6  1  0  0  0
  6  7  1  0  0  0
  7  8  2  0  0  0
  8  9  1  0  0  0
  9 10  1  0  0  0
  9 11  2  0  0  0
 11 12  1  0  0  0
 12 13  1  0  0  0
 12 14  2  0  0  0
 14 15  1  0  0  0
 15 16  2  0  0  0
 15 17  1  0  0  0
 24 19  1  0  0  0
 17  5  2  0  0  0
 14  7  1  0  0  0
 26 29  1  0  0  0
 26 30  1  0  0  0
  1  4  1  0  0  0
M  END
>  <minimizedAffinity>
-3.66310

>  <minimizedRMSD>
2.70815

$$$$
ChemDiv-G357-2017 CHEMBL1555199 MCULE-9100510187 MolPort-007-847-740 PubChem-16027477 ZINC000008607126


 32 35  0  0  0  0  0  0  0  0999 V2000
   17.5039  -10.3695   15.0622 C   0  0  0  0  0  0  0  0  0  0  0  0
   16.6230   -9.2915   14.9102 C   0  0  0  0  0  0  0  0  0  0  0  0
   16.0748   -8.6649   16.0325 C   0  0  0  0  0  0  0  0  0  0  0  0
   16.4002   -9.1084   17.3227 C   0  0  0  0  0  0  0  0  0  0  0  0
   17.2814  -10.1834   17.4734 C   0  0  0  0  0  0  0  0  0  0  0  0
   17.8299  -10.8118   16.3518 C   0  0  0  0  0  0  0  0  0  0  0  0
   15.8628   -8.4870   18.4985 N   0  0  0  0  0  0  0  0  0  0  0  0
   14.6311   -7.7547   18.6028 C   0  0  0  0  0  0  0  0  0  0  0  0
   13.8693   -7.6548   17.6037 O   0  0  0  0  0  0  0  0  0  0  0  0
   16.3950   -8.5713   19.3224 H   0  0  0  0  0  0  0  0  0  0  0  0
   14.2684   -7.1232   19.8977 C   0  0  0  0  0  0  0  0  0  0  0  0
   12.9391   -6.7773   20.2574 C   0  0  0  0  0  0  0  0  0  0  0  0
   11.7677   -7.0249   19.3685 C   0  0  0  0  0  0  0  0  0  0  0  0
   12.6858   -6.1803   21.4971 C   0  0  0  0  0  0  0  0  0  0  0  0
   13.7279   -5.9198   22.3874 C   0  0  0  0  0  0  0  0  0  0  0  0
   15.0362   -6.2572   22.0440 C   0  0  0  0  0  0  0  0  0  0  0  0
   15.3013   -6.8539   20.8103 C   0  0  0  0  0  0  0  0  0  0  0  0
   18.0801  -11.0250   13.8771 C   0  0  0  0  0  0  0  0  0  0  0  0
   18.7368  -12.0956   14.0029 O   0  0  0  0  0  0  0  0  0  0  0  0
   17.8975  -10.4555   12.6150 O   0  0  0  0  0  0  0  0  0  0  0  0
   18.2732  -11.1316   11.4239 C   0  0  0  0  0  0  0  0  0  0  0  0
   19.4158   -6.1105    5.8441 C   0  0  0  0  0  0  0  0  0  0  0  0
   19.0773   -7.1023    6.8971 C   0  0  0  0  0  0  0  0  0  0  0  0
   17.8016   -7.6059    7.1393 C   0  0  0  0  0  0  0  0  0  0  0  0
   17.7743   -8.4982    8.1651 N   0  0  0  0  0  0  0  0  0  0  0  0
   18.9912   -8.6973    8.7190 C   0  0  0  0  0  0  0  0  0  0  0  0
   20.1861   -7.7802    7.9807 S   0  0  0  0  0  0  0  0  0  0  0  0
   19.1695   -9.5456    9.7612 N   0  0  0  0  0  0  0  0  0  0  0  0
   18.0979  -10.2227   10.2606 C   0  0  0  0  0  0  0  0  0  0  0  0
   16.8205  -10.0320    9.7110 C   0  0  0  0  0  0  0  0  0  0  0  0
   16.6753   -9.1480    8.6364 C   0  0  0  0  0  0  0  0  0  0  0  0
   15.5403   -8.9614    8.1216 O   0  0  0  0  0  0  0  0  0  0  0  0
 22 23  1  0  0  0
 23 24  2  0  0  0
 24 25  1  0  0  0
 25 26  1  0  0  0
 26 27  1  0  0  0
 26 28  2  0  0  0
 28 29  1  0  0  0
 29 21  1  0  0  0
 21 20  1  0  0  0
 20 18  1  0  0  0
 18 19  2  0  0  0
 18  1  1  0  0  0
  1  2  2  0  0  0
  2  3  1  0  0  0
  3  4  2  0  0  0
  4  7  1  0  0  0
  7  8  1  0  0  0
  8  9  2  0  0  0
  8 11  1  0  0  0
 11 12  2  0  0  0
 12 13  1  0  0  0
 12 14  1  0  0  0
 14 15  2  0  0  0
 15 16  1  0  0  0
 16 17  2  0  0  0
  4  5  1  0  0  0
  5  6  2  0  0  0
 29 30  2  0  0  0
 30 31  1  0  0  0
 31 32  2  0  0  0
 27 23  1  0  0  0
  6  1  1  0  0  0
 31 25  1  0  0  0
 17 11  1  0  0  0
  7 10  1  0  0  0
M  END
>  <minimizedAffinity>
-3.64456

>  <minimizedRMSD>
1.02376

$$$$
ChemDiv-G357-0001 MCULE-7899833151 MolPort-007-846-992 PubChem-20952927 ZINC000015771320 ZINC15771320


 26 28  0  0  0  0  0  0  0  0999 V2000
   17.9137  -10.2585   14.4995 C   0  0  0  0  0  0  0  0  0  0  0  0
   18.5818  -11.2727   14.8439 O   0  0  0  0  0  0  0  0  0  0  0  0
   15.6411   -8.0849   17.4110 C   0  0  0  0  0  0  0  0  0  0  0  0
   15.5799   -7.7339   16.0542 C   0  0  0  0  0  0  0  0  0  0  0  0
   16.3217   -8.4438   15.1063 C   0  0  0  0  0  0  0  0  0  0  0  0
   17.1344   -9.5140   15.5016 C   0  0  0  0  0  0  0  0  0  0  0  0
   17.1955   -9.8646   16.8574 C   0  0  0  0  0  0  0  0  0  0  0  0
   16.4529   -9.1535   17.8045 C   0  0  0  0  0  0  0  0  0  0  0  0
   12.8943   -6.3054   19.5025 C   0  0  0  0  0  0  0  0  0  0  0  0
   13.5024   -7.0435   18.3656 C   0  0  0  0  0  0  0  0  0  0  0  0
   12.7845   -7.3604   17.3808 O   0  0  0  0  0  0  0  0  0  0  0  0
   14.8947   -7.3801   18.4125 N   0  0  0  0  0  0  0  0  0  0  0  0
   15.3900   -7.0983   19.2153 H   0  0  0  0  0  0  0  0  0  0  0  0
   17.9100   -9.8374   13.1678 O   0  0  0  0  0  0  0  0  0  0  0  0
   18.5163  -10.6020   12.1362 C   0  0  0  0  0  0  0  0  0  0  0  0
   18.2764   -9.9456   10.8241 C   0  0  0  0  0  0  0  0  0  0  0  0
   17.0336  -10.0942   10.1864 C   0  0  0  0  0  0  0  0  0  0  0  0
   16.8220   -9.4437    8.9657 C   0  0  0  0  0  0  0  0  0  0  0  0
   15.7199   -9.5600    8.3669 O   0  0  0  0  0  0  0  0  0  0  0  0
   17.8233   -8.6871    8.4440 N   0  0  0  0  0  0  0  0  0  0  0  0
   17.7507   -8.0171    7.2963 N   0  0  0  0  0  0  0  0  0  0  0  0
   18.8962   -7.3462    7.0273 C   0  0  0  0  0  0  0  0  0  0  0  0
   19.0892   -6.5159    5.8102 C   0  0  0  0  0  0  0  0  0  0  0  0
   20.0668   -7.5666    8.2356 S   0  0  0  0  0  0  0  0  0  0  0  0
   19.0051   -8.5552    9.0827 C   0  0  0  0  0  0  0  0  0  0  0  0
   19.2481   -9.1689   10.2665 N   0  0  0  0  0  0  0  0  0  0  0  0
  9 10  1  0  0  0
 10 11  2  0  0  0
 10 12  1  0  0  0
 12  3  1  0  0  0
  3  4  2  0  0  0
  4  5  1  0  0  0
  5  6  2  0  0  0
  6  7  1  0  0  0
  6  1  1  0  0  0
  7  8  2  0  0  0
  8  3  1  0  0  0
  1  2  2  0  0  0
  1 14  1  0  0  0
 14 15  1  0  0  0
 15 16  1  0  0  0
 16 17  2  0  0  0
 17 18  1  0  0  0
 18 19  2  0  0  0
 18 20  1  0  0  0
 20 21  1  0  0  0
 21 22  2  0  0  0
 22 23  1  0  0  0
 22 24  1  0  0  0
 24 25  1  0  0  0
 25 26  2  0  0  0
 25 20  1  0  0  0
 26 16  1  0  0  0
 12 13  1  0  0  0
M  END
>  <minimizedAffinity>
-3.63559

>  <minimizedRMSD>
1.41426

$$$$
ChemDiv-L466-0019 MolPort-010-869-327 PubChem-53112155 ZINC000065031413 ZINC65031413


 29 32  0  0  0  0  0  0  0  0999 V2000
   15.5318   -8.9103   14.9472 C   0  0  0  0  0  0  0  0  0  0  0  0
   15.2727  -10.0804   14.2261 C   0  0  0  0  0  0  0  0  0  0  0  0
   15.6430  -10.1792   12.8809 C   0  0  0  0  0  0  0  0  0  0  0  0
   16.2815   -9.1063   12.2396 C   0  0  0  0  0  0  0  0  0  0  0  0
   16.5295   -7.9298   12.9611 C   0  0  0  0  0  0  0  0  0  0  0  0
   16.1575   -7.8305   14.3037 C   0  0  0  0  0  0  0  0  0  0  0  0
   16.6785   -9.1983   10.8185 C   0  0  0  0  0  0  0  0  0  0  0  0
   16.0493  -10.1019    9.9449 C   0  0  0  0  0  0  0  0  0  0  0  0
   16.4243  -10.1564    8.6381 N   0  0  0  0  0  0  0  0  0  0  0  0
   17.4053   -9.3491    8.1571 C   0  0  0  0  0  0  0  0  0  0  0  0
   17.7782   -9.4045    6.8103 C   0  0  0  0  0  0  0  0  0  0  0  0
   18.7769   -8.5496    6.3304 C   0  0  0  0  0  0  0  0  0  0  0  0
   19.4079   -7.6458    7.1967 C   0  0  0  0  0  0  0  0  0  0  0  0
   19.0412   -7.5920    8.5463 C   0  0  0  0  0  0  0  0  0  0  0  0
   18.0392   -8.4388    9.0281 C   0  0  0  0  0  0  0  0  0  0  0  0
   17.6650   -8.3915   10.3328 N   0  0  0  0  0  0  0  0  0  0  0  0
   15.1781   -8.8559   16.3030 O   0  0  0  0  0  0  0  0  0  0  0  0
   16.0626   -8.3899   17.3196 C   0  0  0  0  0  0  0  0  0  0  0  0
   18.4266   -8.6561   17.1692 O   0  0  0  0  0  0  0  0  0  0  0  0
   17.3042   -9.2131   17.3168 C   0  0  0  0  0  0  0  0  0  0  0  0
   17.2059  -10.6329   17.4560 N   0  0  0  0  0  0  0  0  0  0  0  0
   16.3557  -11.0191   17.7679 H   0  0  0  0  0  0  0  0  0  0  0  0
   18.3123  -11.5311   17.1552 C   0  0  0  0  0  0  0  0  0  0  0  0
   18.4928  -11.6374   15.6768 C   0  0  0  0  0  0  0  0  0  0  0  0
   18.0804  -12.7829   14.9905 C   0  0  0  0  0  0  0  0  0  0  0  0
   18.2167  -12.8532   13.5996 C   0  0  0  0  0  0  0  0  0  0  0  0
   18.7543  -11.7644   12.9127 C   0  0  0  0  0  0  0  0  0  0  0  0
   19.1422  -10.6531   13.5966 N   0  0  0  0  0  0  0  0  0  0  0  0
   19.0256  -10.5694   14.9512 C   0  0  0  0  0  0  0  0  0  0  0  0
 19 20  2  0  0  0
 20 18  1  0  0  0
 20 21  1  0  0  0
 18 17  1  0  0  0
 17  1  1  0  0  0
  1  2  2  0  0  0
  2  3  1  0  0  0
  3  4  2  0  0  0
  4  5  1  0  0  0
  4  7  1  0  0  0
  5  6  2  0  0  0
  6  1  1  0  0  0
  7  8  2  0  0  0
  8  9  1  0  0  0
  9 10  2  0  0  0
 10 11  1  0  0  0
 11 12  2  0  0  0
 12 13  1  0  0  0
 13 14  2  0  0  0
 14 15  1  0  0  0
 15 16  2  0  0  0
 15 10  1  0  0  0
 16  7  1  0  0  0
 21 23  1  0  0  0
 23 24  1  0  0  0
 24 25  2  0  0  0
 25 26  1  0  0  0
 26 27  2  0  0  0
 27 28  1  0  0  0
 28 29  2  0  0  0
 29 24  1  0  0  0
 21 22  1  0  0  0
M  END
>  <minimizedAffinity>
-3.61711

>  <minimizedRMSD>
1.58307

$$$$
ChemDiv-C548-3500 CHEMBL1561959 MolPort-007-642-499 PubChem-9551310 ZINC000008671706


 35 39  0  0  0  0  0  0  0  0999 V2000
   15.7814   -8.2872   16.4886 C   0  0  0  0  0  0  0  0  0  0  0  0
   15.2519   -9.6989   16.1867 C   0  0  0  0  0  0  0  0  0  0  0  0
   16.2497  -10.7838   16.5922 C   0  0  0  0  0  0  0  0  0  0  0  0
   17.5989  -10.6119   15.8740 C   0  0  0  0  0  0  0  0  0  0  0  0
   17.9490   -9.1531   15.5399 C   0  0  0  0  0  0  0  0  0  0  0  0
   17.3117   -8.1908   16.5353 C   0  0  0  0  0  0  0  0  0  0  0  0
   14.2597   -6.9083   17.6847 O   0  0  0  0  0  0  0  0  0  0  0  0
   15.1911   -7.7529   17.7501 C   0  0  0  0  0  0  0  0  0  0  0  0
   15.6918   -8.1856   19.0193 N   0  0  0  0  0  0  0  0  0  0  0  0
   16.4438   -8.8208   19.0361 H   0  0  0  0  0  0  0  0  0  0  0  0
   15.1391   -7.7288   20.2875 C   0  0  0  0  0  0  0  0  0  0  0  0
   13.7518   -7.2162   20.0995 C   0  0  0  0  0  0  0  0  0  0  0  0
   12.7378   -8.0748   19.6155 C   0  0  0  0  0  0  0  0  0  0  0  0
   11.4283   -7.5981   19.4265 C   0  0  0  0  0  0  0  0  0  0  0  0
   11.1805   -6.2628   19.7353 C   0  0  0  0  0  0  0  0  0  0  0  0
    9.9937   -5.5647   19.6371 O   0  0  0  0  0  0  0  0  0  0  0  0
   10.2334   -4.2168   20.0692 C   0  0  0  0  0  0  0  0  0  0  0  0
   11.6240   -4.1803   20.4199 O   0  0  0  0  0  0  0  0  0  0  0  0
   12.1526   -5.4370   20.2011 C   0  0  0  0  0  0  0  0  0  0  0  0
   13.4604   -5.8720   20.3985 C   0  0  0  0  0  0  0  0  0  0  0  0
   17.6893  -11.4871   14.6282 C   0  0  0  0  0  0  0  0  0  0  0  0
   17.4080  -10.7125   13.4267 N   0  0  0  0  0  0  0  0  0  0  0  0
   17.0136   -9.8071   13.6819 H   0  0  0  0  0  0  0  0  0  0  0  0
   18.9013  -10.4870   12.5812 S   0  0  0  0  0  0  0  0  0  0  0  0
   19.5389  -11.8160   12.2836 O   0  0  0  0  0  0  0  0  0  0  0  0
   19.8365   -9.6705   13.4304 O   0  0  0  0  0  0  0  0  0  0  0  0
   18.5808   -9.6409   11.0721 C   0  0  0  0  0  0  0  0  0  0  0  0
   19.5477   -8.7758   10.5395 C   0  0  0  0  0  0  0  0  0  0  0  0
   19.3065   -8.0729    9.3502 C   0  0  0  0  0  0  0  0  0  0  0  0
   18.0914   -8.2184    8.6707 C   0  0  0  0  0  0  0  0  0  0  0  0
   17.1200   -9.0720    9.1910 C   0  0  0  0  0  0  0  0  0  0  0  0
   15.9189   -9.2623    8.5922 N   0  0  0  0  0  0  0  0  0  0  0  0
   15.2349  -10.3347    9.6502 S   0  0  0  0  0  0  0  0  0  0  0  0
   16.3584  -10.5941   10.8348 N   0  0  0  0  0  0  0  0  0  0  0  0
   17.3604   -9.7885   10.3979 C   0  0  0  0  0  0  0  0  0  0  0  0
  7  8  2  0  0  0
  8  9  1  0  0  0
  9 11  1  0  0  0
 11 12  1  0  0  0
 12 13  2  0  0  0
 13 14  1  0  0  0
 14 15  2  0  0  0
 15 16  1  0  0  0
 16 17  1  0  0  0
 17 18  1  0  0  0
 18 19  1  0  0  0
 19 20  2  0  0  0
  8  1  1  0  0  0
  1  2  1  0  0  0
  2  3  1  0  0  0
  3  4  1  0  0  0
  4 21  1  0  0  0
 21 22  1  0  0  0
 22 24  1  0  0  0
 24 25  2  0  0  0
 24 26  2  0  0  0
 24 27  1  0  0  0
 27 28  2  0  0  0
 28 29  1  0  0  0
 29 30  2  0  0  0
 30 31  1  0  0  0
 31 32  2  0  0  0
 32 33  1  0  0  0
 33 34  1  0  0  0
 34 35  2  0  0  0
  4  5  1  0  0  0
  5  6  1  0  0  0
 20 12  1  0  0  0
  6  1  1  0  0  0
 19 15  1  0  0  0
 35 27  1  0  0  0
 35 31  1  0  0  0
  9 10  1  0  0  0
 22 23  1  0  0  0
M  END
>  <minimizedAffinity>
-3.60453

>  <minimizedRMSD>
1.96790

$$$$
ChemDiv-G756-0634 MCULE-4039023487 MolPort-007-879-301 PubChem-46356145 ZINC000015787088 ZINC15787088


 38 41  0  0  0  0  0  0  0  0999 V2000
   17.4828  -10.3628   16.7305 C   0  0  0  0  0  0  0  0  0  0  0  0
   17.6941   -9.7395   15.4911 C   0  0  0  0  0  0  0  0  0  0  0  0
   18.1096  -10.4809   14.3805 C   0  0  0  0  0  0  0  0  0  0  0  0
   18.3152  -11.8633   14.5132 C   0  0  0  0  0  0  0  0  0  0  0  0
   18.1059  -12.4903   15.7435 C   0  0  0  0  0  0  0  0  0  0  0  0
   17.6915  -11.7409   16.8475 C   0  0  0  0  0  0  0  0  0  0  0  0
   15.7233   -8.0508   19.2263 N   0  0  0  0  0  0  0  0  0  0  0  0
   15.9680   -8.7108   17.9778 C   0  0  0  0  0  0  0  0  0  0  0  0
   15.2316   -8.4908   16.9788 O   0  0  0  0  0  0  0  0  0  0  0  0
   17.0651   -9.6286   17.8895 N   0  0  0  0  0  0  0  0  0  0  0  0
   16.3264   -8.2793   19.9701 H   0  0  0  0  0  0  0  0  0  0  0  0
   17.5876   -9.7701   18.7118 H   0  0  0  0  0  0  0  0  0  0  0  0
   12.7049   -5.2132   20.1331 C   0  0  0  0  0  0  0  0  0  0  0  0
   13.5508   -5.7004   21.1345 C   0  0  0  0  0  0  0  0  0  0  0  0
   14.5421   -6.6347   20.8205 C   0  0  0  0  0  0  0  0  0  0  0  0
   14.6936   -7.0931   19.5073 C   0  0  0  0  0  0  0  0  0  0  0  0
   13.8385   -6.6047   18.5073 C   0  0  0  0  0  0  0  0  0  0  0  0
   12.8474   -5.6701   18.8189 C   0  0  0  0  0  0  0  0  0  0  0  0
   11.6319   -4.2359   20.4739 C   0  0  0  0  0  0  0  0  0  0  0  0
   10.3302   -4.9387   20.6535 C   0  0  0  0  0  0  0  0  0  0  0  0
    9.7956   -4.9780   21.7948 O   0  0  0  0  0  0  0  0  0  0  0  0
    9.7340   -5.5712   19.5593 O   0  0  0  0  0  0  0  0  0  0  0  0
   10.2951   -7.4730   18.1821 C   0  0  0  0  0  0  0  0  0  0  0  0
    9.6292   -6.9861   19.4562 C   0  0  0  0  0  0  0  0  0  0  0  0
   18.3109   -9.8234   13.1643 O   0  0  0  0  0  0  0  0  0  0  0  0
   18.8515  -10.4742   12.0216 C   0  0  0  0  0  0  0  0  0  0  0  0
   18.2108   -9.9390   10.7913 C   0  0  0  0  0  0  0  0  0  0  0  0
   16.8814  -10.2379   10.5139 C   0  0  0  0  0  0  0  0  0  0  0  0
   16.3003   -9.7107    9.3627 C   0  0  0  0  0  0  0  0  0  0  0  0
   15.0952   -9.9851    9.1079 O   0  0  0  0  0  0  0  0  0  0  0  0
   17.0323   -8.9094    8.5271 N   0  0  0  0  0  0  0  0  0  0  0  0
   16.4554   -8.3958    7.3998 C   0  0  0  0  0  0  0  0  0  0  0  0
   17.1781   -7.5734    6.5356 C   0  0  0  0  0  0  0  0  0  0  0  0
   18.5057   -7.2742    6.8295 C   0  0  0  0  0  0  0  0  0  0  0  0
   19.1009   -7.7959    7.9765 C   0  0  0  0  0  0  0  0  0  0  0  0
   20.5243   -7.4623    8.2706 C   0  0  0  0  0  0  0  0  0  0  0  0
   18.3470   -8.6222    8.8280 C   0  0  0  0  0  0  0  0  0  0  0  0
   18.9139   -9.1378    9.9527 N   0  0  0  0  0  0  0  0  0  0  0  0
 23 24  1  0  0  0
 24 22  1  0  0  0
 22 20  1  0  0  0
 20 21  2  0  0  0
 20 19  1  0  0  0
 19 13  1  0  0  0
 13 14  2  0  0  0
 14 15  1  0  0  0
 15 16  2  0  0  0
 16  7  1  0  0  0
 16 17  1  0  0  0
  7  8  1  0  0  0
  8  9  2  0  0  0
  8 10  1  0  0  0
 10  1  1  0  0  0
  1  2  2  0  0  0
  2  3  1  0  0  0
  3 25  1  0  0  0
  3  4  2  0  0  0
 25 26  1  0  0  0
 26 27  1  0  0  0
 27 28  2  0  0  0
 28 29  1  0  0  0
 29 30  2  0  0  0
 29 31  1  0  0  0
 31 32  1  0  0  0
 32 33  2  0  0  0
 33 34  1  0  0  0
 34 35  2  0  0  0
 35 36  1  0  0  0
 35 37  1  0  0  0
 37 38  2  0  0  0
 37 31  1  0  0  0
 38 27  1  0  0  0
  4  5  1  0  0  0
  5  6  2  0  0  0
  6  1  1  0  0  0
 17 18  2  0  0  0
 18 13  1  0  0  0
  7 11  1  0  0  0
 10 12  1  0  0  0
M  END
>  <minimizedAffinity>
-3.53984

>  <minimizedRMSD>
2.53545

$$$$
ChemDiv-G357-1022 MCULE-4730690508 MolPort-007-847-399 PubChem-46343362 ZINC000015771886


 35 38  0  0  0  0  0  0  0  0999 V2000
   16.9835   -9.3021   15.6604 C   0  0  0  0  0  0  0  0  0  0  0  0
   17.9713  -10.0749   15.8030 O   0  0  0  0  0  0  0  0  0  0  0  0
   16.3730   -8.6612   16.8361 C   0  0  0  0  0  0  0  0  0  0  0  0
   17.0565   -8.6149   18.0591 C   0  0  0  0  0  0  0  0  0  0  0  0
   16.4710   -8.0054   19.1725 C   0  0  0  0  0  0  0  0  0  0  0  0
   15.1968   -7.4365   19.0800 C   0  0  0  0  0  0  0  0  0  0  0  0
   14.5132   -7.4814   17.8560 C   0  0  0  0  0  0  0  0  0  0  0  0
   15.0976   -8.0898   16.7418 C   0  0  0  0  0  0  0  0  0  0  0  0
   14.6315   -6.8185   20.2441 N   0  0  0  0  0  0  0  0  0  0  0  0
   13.5580   -5.8652   20.2784 C   0  0  0  0  0  0  0  0  0  0  0  0
   12.9860   -5.5039   19.2139 O   0  0  0  0  0  0  0  0  0  0  0  0
   15.0205   -7.0748   21.1114 H   0  0  0  0  0  0  0  0  0  0  0  0
   13.1179   -5.3073   21.5694 C   0  0  0  0  0  0  0  0  0  0  0  0
   12.1770   -4.2673   21.6105 C   0  0  0  0  0  0  0  0  0  0  0  0
   11.7612   -3.7377   22.8356 C   0  0  0  0  0  0  0  0  0  0  0  0
   12.2834   -4.2439   24.0288 C   0  0  0  0  0  0  0  0  0  0  0  0
   13.2207   -5.2800   23.9972 C   0  0  0  0  0  0  0  0  0  0  0  0
   13.7763   -5.8185   25.2658 C   0  0  0  0  0  0  0  0  0  0  0  0
   13.6363   -5.8096   22.7720 C   0  0  0  0  0  0  0  0  0  0  0  0
   16.4646   -9.0507   14.3882 O   0  0  0  0  0  0  0  0  0  0  0  0
   15.4918   -9.8965   13.7927 C   0  0  0  0  0  0  0  0  0  0  0  0
   15.9827   -9.8202    9.6057 N   0  0  0  0  0  0  0  0  0  0  0  0
   16.2890   -9.7480    8.3127 N   0  0  0  0  0  0  0  0  0  0  0  0
   17.5953   -9.4442    8.1162 C   0  0  0  0  0  0  0  0  0  0  0  0
   18.4331   -9.2489    9.5792 S   0  0  0  0  0  0  0  0  0  0  0  0
   17.0233   -9.5787   10.4307 C   0  0  0  0  0  0  0  0  0  0  0  0
   16.8854   -9.6058   11.7788 N   0  0  0  0  0  0  0  0  0  0  0  0
   15.6661   -9.8929   12.3163 C   0  0  0  0  0  0  0  0  0  0  0  0
   14.5631  -10.1407   11.4823 C   0  0  0  0  0  0  0  0  0  0  0  0
   14.7465  -10.1016   10.0957 C   0  0  0  0  0  0  0  0  0  0  0  0
   13.7783  -10.3220    9.3207 O   0  0  0  0  0  0  0  0  0  0  0  0
   18.2089   -9.2866    6.7668 C   0  0  0  0  0  0  0  0  0  0  0  0
   19.3170   -8.2417    6.7802 C   0  0  0  0  0  0  0  0  0  0  0  0
   19.1417   -7.2603    7.9285 C   0  0  0  0  0  0  0  0  0  0  0  0
   18.2360   -6.1158    7.5162 C   0  0  0  0  0  0  0  0  0  0  0  0
 22 23  1  0  0  0
 23 24  2  0  0  0
 24 25  1  0  0  0
 25 26  1  0  0  0
 26 27  2  0  0  0
 27 28  1  0  0  0
 28 21  1  0  0  0
 21 20  1  0  0  0
 20  1  1  0  0  0
  1  2  2  0  0  0
  1  3  1  0  0  0
  3  4  2  0  0  0
  4  5  1  0  0  0
  5  6  2  0  0  0
  6  7  1  0  0  0
  7  8  2  0  0  0
  6  9  1  0  0  0
  9 10  1  0  0  0
 10 11  2  0  0  0
 10 13  1  0  0  0
 13 14  2  0  0  0
 14 15  1  0  0  0
 15 16  2  0  0  0
 16 17  1  0  0  0
 17 18  1  0  0  0
 17 19  2  0  0  0
 28 29  2  0  0  0
 29 30  1  0  0  0
 30 31  2  0  0  0
 24 32  1  0  0  0
 32 33  1  0  0  0
 33 34  1  0  0  0
 34 35  1  0  0  0
 26 22  1  0  0  0
  8  3  1  0  0  0
 19 13  1  0  0  0
 30 22  1  0  0  0
  9 12  1  0  0  0
M  END
>  <minimizedAffinity>
-3.52071

>  <minimizedRMSD>
3.14208

$$$$
ChemDiv-G072-2400 MCULE-5727533664 MolPort-007-825-557 PubChem-20939542 ZINC000020984469 ZINC20984469


 31 34  0  0  0  0  0  0  0  0999 V2000
   16.1599   -8.7261   17.1952 C   0  0  0  0  0  0  0  0  0  0  0  0
   16.9524   -9.8566   17.4810 C   0  0  0  0  0  0  0  0  0  0  0  0
   17.5184  -10.6235   16.4489 C   0  0  0  0  0  0  0  0  0  0  0  0
   17.2791  -10.2431   15.1296 C   0  0  0  0  0  0  0  0  0  0  0  0
   17.7653  -10.8969   14.0448 N   0  0  0  0  0  0  0  0  0  0  0  0
   17.3603  -10.2933   12.9014 C   0  0  0  0  0  0  0  0  0  0  0  0
   16.3954   -8.9314   13.1892 S   0  0  0  0  0  0  0  0  0  0  0  0
   16.4998   -9.1324   14.8508 C   0  0  0  0  0  0  0  0  0  0  0  0
   15.9289   -8.3575   15.8552 C   0  0  0  0  0  0  0  0  0  0  0  0
   14.3313   -7.3223   18.3267 C   0  0  0  0  0  0  0  0  0  0  0  0
   13.5778   -7.3255   17.3164 O   0  0  0  0  0  0  0  0  0  0  0  0
   15.6061   -7.9833   18.2897 N   0  0  0  0  0  0  0  0  0  0  0  0
   16.1584   -7.9196   19.1022 H   0  0  0  0  0  0  0  0  0  0  0  0
   13.8815   -6.5895   19.5611 C   0  0  0  0  0  0  0  0  0  0  0  0
   11.7789   -5.3444   20.0882 C   0  0  0  0  0  0  0  0  0  0  0  0
   12.3704   -6.6977   19.7417 C   0  0  0  0  0  0  0  0  0  0  0  0
   14.6492   -6.9788   20.8323 C   0  0  0  0  0  0  0  0  0  0  0  0
   13.9590   -8.0830   21.6212 C   0  0  0  0  0  0  0  0  0  0  0  0
   17.8126  -10.8789   11.2733 S   0  0  0  0  0  0  0  0  0  0  0  0
   16.5705   -9.8265   10.4487 C   0  0  0  0  0  0  0  0  0  0  0  0
   17.1086   -9.0949    9.2565 C   0  0  0  0  0  0  0  0  0  0  0  0
   16.1943   -8.4995    8.3632 C   0  0  0  0  0  0  0  0  0  0  0  0
   16.6910   -7.8108    7.2499 C   0  0  0  0  0  0  0  0  0  0  0  0
   15.9119   -7.2628    6.4269 O   0  0  0  0  0  0  0  0  0  0  0  0
   18.0339   -7.7517    7.0861 N   0  0  0  0  0  0  0  0  0  0  0  0
   18.7095   -7.1757    6.1453 O   0  0  0  0  0  0  0  0  0  0  0  0
   19.9949   -7.3632    6.3725 C   0  0  0  0  0  0  0  0  0  0  0  0
   21.0762   -6.8415    5.4963 C   0  0  0  0  0  0  0  0  0  0  0  0
   20.1955   -8.1114    7.5376 C   0  0  0  0  0  0  0  0  0  0  0  0
   18.8899   -8.3224    7.9374 C   0  0  0  0  0  0  0  0  0  0  0  0
   18.4552   -8.9998    9.0273 N   0  0  0  0  0  0  0  0  0  0  0  0
 15 16  1  0  0  0
 16 14  1  0  0  0
 14 17  1  0  0  0
 14 10  1  0  0  0
 17 18  1  0  0  0
 10 11  2  0  0  0
 10 12  1  0  0  0
 12  1  1  0  0  0
  1  2  2  0  0  0
  2  3  1  0  0  0
  3  4  2  0  0  0
  4  5  1  0  0  0
  5  6  2  0  0  0
  6 19  1  0  0  0
  6  7  1  0  0  0
 19 20  1  0  0  0
 20 21  1  0  0  0
 21 22  2  0  0  0
 22 23  1  0  0  0
 23 24  2  0  0  0
 23 25  1  0  0  0
 25 26  1  0  0  0
 26 27  1  0  0  0
 27 28  1  0  0  0
 27 29  2  0  0  0
 29 30  1  0  0  0
 30 31  2  0  0  0
 30 25  1  0  0  0
 31 21  1  0  0  0
  7  8  1  0  0  0
  8  9  2  0  0  0
  8  4  1  0  0  0
  9  1  1  0  0  0
 12 13  1  0  0  0
M  END
>  <minimizedAffinity>
-3.49817

>  <minimizedRMSD>
2.12824

$$$$
ChemDiv-D483-1598 MCULE-7549295057 MolPort-007-710-960 PubChem-20899089


 35 38  0  0  0  0  0  0  0  0999 V2000
   17.6959  -10.7345   14.1757 C   0  0  0  0  0  0  0  0  0  0  0  0
   18.5543  -11.2373   13.2678 N   0  0  0  0  0  0  0  0  0  0  0  0
   17.9685  -11.1272   12.0826 N   0  0  0  0  0  0  0  0  0  0  0  0
   16.7627  -10.5621   12.2914 C   0  0  0  0  0  0  0  0  0  0  0  0
   16.5642  -10.3033   13.5950 N   0  0  0  0  0  0  0  0  0  0  0  0
   15.4022   -9.7013   14.2291 C   0  0  0  0  0  0  0  0  0  0  0  0
   18.0396  -10.6494   15.9317 S   0  0  0  0  0  0  0  0  0  0  0  0
   18.2647   -8.8451   15.8873 C   0  0  0  0  0  0  0  0  0  0  0  0
   19.4543   -8.4450   16.7408 C   0  0  0  0  0  0  0  0  0  0  0  0
   16.4771   -8.4824   17.6468 N   0  0  0  0  0  0  0  0  0  0  0  0
   17.0290   -8.1579   16.3618 C   0  0  0  0  0  0  0  0  0  0  0  0
   16.4847   -7.3000   15.6178 O   0  0  0  0  0  0  0  0  0  0  0  0
   16.9632   -9.1531   18.1789 H   0  0  0  0  0  0  0  0  0  0  0  0
   13.0004   -6.8590   19.4665 C   0  0  0  0  0  0  0  0  0  0  0  0
   13.0250   -7.0717   18.0789 C   0  0  0  0  0  0  0  0  0  0  0  0
   14.1637   -7.6045   17.4689 C   0  0  0  0  0  0  0  0  0  0  0  0
   15.2916   -7.9314   18.2359 C   0  0  0  0  0  0  0  0  0  0  0  0
   15.2636   -7.7187   19.6181 C   0  0  0  0  0  0  0  0  0  0  0  0
   14.1253   -7.1856   20.2300 C   0  0  0  0  0  0  0  0  0  0  0  0
   11.0848   -5.2961   19.5371 C   0  0  0  0  0  0  0  0  0  0  0  0
   11.8778   -6.3280   20.1075 O   0  0  0  0  0  0  0  0  0  0  0  0
   15.7973  -10.2297   11.1994 C   0  0  0  0  0  0  0  0  0  0  0  0
   16.5264   -9.7399    9.9805 C   0  0  0  0  0  0  0  0  0  0  0  0
   16.1663  -10.1811    8.6996 C   0  0  0  0  0  0  0  0  0  0  0  0
   15.0293  -11.1242    8.4912 C   0  0  0  0  0  0  0  0  0  0  0  0
   16.8556   -9.7430    7.6184 N   0  0  0  0  0  0  0  0  0  0  0  0
   17.8989   -8.8804    7.7387 C   0  0  0  0  0  0  0  0  0  0  0  0
   18.2775   -8.4282    8.9835 N   0  0  0  0  0  0  0  0  0  0  0  0
   19.3254   -7.5597    9.1105 C   0  0  0  0  0  0  0  0  0  0  0  0
   20.0293   -7.1154    7.9917 C   0  0  0  0  0  0  0  0  0  0  0  0
   19.6559   -7.5654    6.7287 C   0  0  0  0  0  0  0  0  0  0  0  0
   18.5888   -8.4507    6.5919 C   0  0  0  0  0  0  0  0  0  0  0  0
   18.2065   -8.9188    5.2288 C   0  0  0  0  0  0  0  0  0  0  0  0
   17.6043   -8.8479   10.1003 C   0  0  0  0  0  0  0  0  0  0  0  0
   17.9460   -8.4341   11.2445 O   0  0  0  0  0  0  0  0  0  0  0  0
 20 21  1  0  0  0
 21 14  1  0  0  0
 14 15  2  0  0  0
 15 16  1  0  0  0
 16 17  2  0  0  0
 17 10  1  0  0  0
 17 18  1  0  0  0
 10 11  1  0  0  0
 11 12  2  0  0  0
  8 11  1  0  0  0
  8  9  1  0  0  0
  8  7  1  0  0  0
  7  1  1  0  0  0
  1  2  2  0  0  0
  2  3  1  0  0  0
  3  4  2  0  0  0
  4 22  1  0  0  0
  4  5  1  0  0  0
 22 23  1  0  0  0
 23 24  2  0  0  0
 24 25  1  0  0  0
 24 26  1  0  0  0
 26 27  2  0  0  0
 27 28  1  0  0  0
 28 29  1  0  0  0
 28 34  1  0  0  0
 29 30  2  0  0  0
 30 31  1  0  0  0
 31 32  2  0  0  0
 32 33  1  0  0  0
 32 27  1  0  0  0
 34 35  2  0  0  0
 34 23  1  0  0  0
  5  6  1  0  0  0
  5  1  1  0  0  0
 18 19  2  0  0  0
 19 14  1  0  0  0
 10 13  1  0  0  0
M  END
>  <minimizedAffinity>
-3.49567

>  <minimizedRMSD>
2.60753

$$$$
ChemDiv-F813-2950 MCULE-8066058063 MolPort-010-667-666 PubChem-52999642 ZINC000035533267 ZINC35533267


 33 36  0  0  0  0  0  0  0  0999 V2000
   18.8592   -8.3403   10.8995 S   0  0  0  0  0  0  0  0  0  0  0  0
   19.2007   -7.9252    5.9944 C   0  0  0  0  0  0  0  0  0  0  0  0
   18.0963   -8.7047    5.8703 N   0  0  0  0  0  0  0  0  0  0  0  0
   17.6337   -9.0739    7.0905 C   0  0  0  0  0  0  0  0  0  0  0  0
   16.5419   -9.8572    7.2748 N   0  0  0  0  0  0  0  0  0  0  0  0
   16.1543  -10.1764    8.5441 C   0  0  0  0  0  0  0  0  0  0  0  0
   16.8577   -9.7141    9.6219 N   0  0  0  0  0  0  0  0  0  0  0  0
   17.9600   -8.9278    9.4641 C   0  0  0  0  0  0  0  0  0  0  0  0
   18.3507   -8.6008    8.1699 C   0  0  0  0  0  0  0  0  0  0  0  0
   19.6364   -7.6709    7.6178 S   0  0  0  0  0  0  0  0  0  0  0  0
   22.7069   -7.1452    1.6904 C   0  0  0  0  0  0  0  0  0  0  0  0
   21.7245   -7.6535    2.7241 C   0  0  0  0  0  0  0  0  0  0  0  0
   22.2507   -7.3452    4.1357 C   0  0  0  0  0  0  0  0  0  0  0  0
   21.1958   -6.7232    5.0541 C   0  0  0  0  0  0  0  0  0  0  0  0
   19.9068   -7.3882    4.8683 N   0  0  0  0  0  0  0  0  0  0  0  0
   19.3555   -7.5517    3.5199 C   0  0  0  0  0  0  0  0  0  0  0  0
   20.3392   -7.0665    2.4558 C   0  0  0  0  0  0  0  0  0  0  0  0
   19.3283  -10.0181   11.4303 C   0  0  0  0  0  0  0  0  0  0  0  0
   18.5028  -10.4535   12.5915 C   0  0  0  0  0  0  0  0  0  0  0  0
   17.5060  -11.1965   12.3916 O   0  0  0  0  0  0  0  0  0  0  0  0
   18.8613  -10.0264   13.9127 N   0  0  0  0  0  0  0  0  0  0  0  0
   19.6735   -9.4753   13.9891 H   0  0  0  0  0  0  0  0  0  0  0  0
   18.1668  -10.3133   15.1378 C   0  0  0  0  0  0  0  0  0  0  0  0
   17.0503   -9.5305   15.5297 C   0  0  0  0  0  0  0  0  0  0  0  0
   16.3923   -9.8379   16.7314 C   0  0  0  0  0  0  0  0  0  0  0  0
   16.8189  -10.8948   17.5358 C   0  0  0  0  0  0  0  0  0  0  0  0
   17.9141  -11.6639   17.1491 C   0  0  0  0  0  0  0  0  0  0  0  0
   18.5813  -11.3742   15.9590 C   0  0  0  0  0  0  0  0  0  0  0  0
   16.5382   -8.3934   14.7242 C   0  0  0  0  0  0  0  0  0  0  0  0
   16.7120   -7.0558   15.1850 N   0  0  0  0  0  0  0  0  0  0  0  0
   15.9455   -8.5837   13.6297 O   0  0  0  0  0  0  0  0  0  0  0  0
   17.1727   -6.8850   16.0381 H   0  0  0  0  0  0  0  0  0  0  0  0
   16.3714   -6.3027   14.6501 H   0  0  0  0  0  0  0  0  0  0  0  0
 11 12  1  0  0  0
 12 13  1  0  0  0
 13 14  1  0  0  0
 14 15  1  0  0  0
 15 16  1  0  0  0
 15  2  1  0  0  0
 16 17  1  0  0  0
 17 12  1  0  0  0
  2  3  2  0  0  0
  3  4  1  0  0  0
  4  5  2  0  0  0
  5  6  1  0  0  0
  6  7  2  0  0  0
  7  8  1  0  0  0
  8  1  1  0  0  0
  8  9  2  0  0  0
  1 18  1  0  0  0
 18 19  1  0  0  0
 19 20  2  0  0  0
 19 21  1  0  0  0
 21 23  1  0  0  0
 23 24  2  0  0  0
 24 25  1  0  0  0
 24 29  1  0  0  0
 25 26  2  0  0  0
 26 27  1  0  0  0
 27 28  2  0  0  0
 28 23  1  0  0  0
 29 30  1  0  0  0
 29 31  2  0  0  0
  9 10  1  0  0  0
  9  4  1  0  0  0
 10  2  1  0  0  0
 21 22  1  0  0  0
 30 32  1  0  0  0
 30 33  1  0  0  0
M  END
>  <minimizedAffinity>
-3.46180

>  <minimizedRMSD>
1.77251

$$$$
ChemDiv-D483-1479 MCULE-1760270246 MolPort-007-710-939 PubChem-20899069 ZINC000015859232 ZINC15859232


 35 38  0  0  0  0  0  0  0  0999 V2000
   16.0303   -8.6691   13.8343 C   0  0  0  0  0  0  0  0  0  0  0  0
   17.0118   -9.4269   13.0743 N   0  0  0  0  0  0  0  0  0  0  0  0
   17.3921   -9.2543   11.7968 C   0  0  0  0  0  0  0  0  0  0  0  0
   18.3517  -10.1346   11.4480 N   0  0  0  0  0  0  0  0  0  0  0  0
   18.5945  -10.8843   12.5150 N   0  0  0  0  0  0  0  0  0  0  0  0
   17.7797  -10.4458   13.4943 C   0  0  0  0  0  0  0  0  0  0  0  0
   16.8279   -8.2246   10.8704 C   0  0  0  0  0  0  0  0  0  0  0  0
   17.2657   -8.4848    9.4569 C   0  0  0  0  0  0  0  0  0  0  0  0
   16.6666   -9.4911    8.6849 C   0  0  0  0  0  0  0  0  0  0  0  0
   15.5490  -10.3217    9.2187 C   0  0  0  0  0  0  0  0  0  0  0  0
   17.1009   -9.7194    7.4212 N   0  0  0  0  0  0  0  0  0  0  0  0
   18.1111   -8.9954    6.8780 C   0  0  0  0  0  0  0  0  0  0  0  0
   18.5247   -9.2721    5.5726 C   0  0  0  0  0  0  0  0  0  0  0  0
   19.5622   -8.5311    5.0104 C   0  0  0  0  0  0  0  0  0  0  0  0
   20.0144   -8.8152    3.6240 C   0  0  0  0  0  0  0  0  0  0  0  0
   20.1756   -7.5239    5.7522 C   0  0  0  0  0  0  0  0  0  0  0  0
   19.7390   -7.2719    7.0540 C   0  0  0  0  0  0  0  0  0  0  0  0
   18.7214   -7.9992    7.6060 N   0  0  0  0  0  0  0  0  0  0  0  0
   18.3092   -7.7373    8.8854 C   0  0  0  0  0  0  0  0  0  0  0  0
   18.8621   -6.8221    9.5599 O   0  0  0  0  0  0  0  0  0  0  0  0
   17.7455  -11.1408   15.1470 S   0  0  0  0  0  0  0  0  0  0  0  0
   16.3895  -10.0535   15.6917 C   0  0  0  0  0  0  0  0  0  0  0  0
   16.7695   -9.3199   16.9317 C   0  0  0  0  0  0  0  0  0  0  0  0
   17.9652   -9.3574   17.3242 O   0  0  0  0  0  0  0  0  0  0  0  0
   15.7743   -8.5773   17.6488 N   0  0  0  0  0  0  0  0  0  0  0  0
   14.8826   -8.5183   17.2355 H   0  0  0  0  0  0  0  0  0  0  0  0
   15.9470   -7.9121   18.9067 C   0  0  0  0  0  0  0  0  0  0  0  0
   14.8570   -7.8254   19.7784 C   0  0  0  0  0  0  0  0  0  0  0  0
   14.9916   -7.1945   21.0175 C   0  0  0  0  0  0  0  0  0  0  0  0
   16.2212   -6.6484   21.3937 C   0  0  0  0  0  0  0  0  0  0  0  0
   17.3265   -6.7293   20.5341 C   0  0  0  0  0  0  0  0  0  0  0  0
   17.1796   -7.3643   19.2926 C   0  0  0  0  0  0  0  0  0  0  0  0
   18.6302   -6.1603   20.9253 C   0  0  0  0  0  0  0  0  0  0  0  0
   18.7714   -5.3338   22.1590 C   0  0  0  0  0  0  0  0  0  0  0  0
   19.6504   -6.3678   20.2152 O   0  0  0  0  0  0  0  0  0  0  0  0
  1  2  1  0  0  0
  2  3  1  0  0  0
  3  7  1  0  0  0
  3  4  2  0  0  0
  7  8  1  0  0  0
  8  9  2  0  0  0
  9 10  1  0  0  0
  9 11  1  0  0  0
 11 12  2  0  0  0
 12 13  1  0  0  0
 13 14  2  0  0  0
 14 15  1  0  0  0
 14 16  1  0  0  0
 16 17  2  0  0  0
 17 18  1  0  0  0
 18 19  1  0  0  0
 18 12  1  0  0  0
 19 20  2  0  0  0
 19  8  1  0  0  0
  4  5  1  0  0  0
  5  6  2  0  0  0
  6 21  1  0  0  0
  6  2  1  0  0  0
 21 22  1  0  0  0
 22 23  1  0  0  0
 23 24  2  0  0  0
 23 25  1  0  0  0
 25 27  1  0  0  0
 27 28  2  0  0  0
 28 29  1  0  0  0
 29 30  2  0  0  0
 30 31  1  0  0  0
 31 32  2  0  0  0
 31 33  1  0  0  0
 32 27  1  0  0  0
 33 34  1  0  0  0
 33 35  2  0  0  0
 25 26  1  0  0  0
M  END
>  <minimizedAffinity>
-3.44454

>  <minimizedRMSD>
2.58466

$$$$
ChemDiv-F813-2365 MCULE-9155522382 MolPort-010-667-600 PubChem-52999576 ZINC000035533071


 31 34  0  0  0  0  0  0  0  0999 V2000
   19.1547   -9.7893   11.2034 C   0  0  0  0  0  0  0  0  0  0  0  0
   18.3650  -10.2707   12.3713 C   0  0  0  0  0  0  0  0  0  0  0  0
   17.3084  -10.9254   12.1699 O   0  0  0  0  0  0  0  0  0  0  0  0
   18.8247   -9.9874   13.6999 N   0  0  0  0  0  0  0  0  0  0  0  0
   19.6765   -9.4993   13.7734 H   0  0  0  0  0  0  0  0  0  0  0  0
   18.1802  -10.3367   14.9360 C   0  0  0  0  0  0  0  0  0  0  0  0
   18.6261  -11.4378   15.6848 C   0  0  0  0  0  0  0  0  0  0  0  0
   18.0075  -11.7878   16.8848 C   0  0  0  0  0  0  0  0  0  0  0  0
   16.9303  -11.0399   17.3544 C   0  0  0  0  0  0  0  0  0  0  0  0
   16.4730   -9.9437   16.6229 C   0  0  0  0  0  0  0  0  0  0  0  0
   17.0819   -9.5752   15.4125 C   0  0  0  0  0  0  0  0  0  0  0  0
   16.5393   -8.3989   14.6874 C   0  0  0  0  0  0  0  0  0  0  0  0
   16.7509   -7.0849   15.1978 N   0  0  0  0  0  0  0  0  0  0  0  0
   15.8870   -8.5348   13.6189 O   0  0  0  0  0  0  0  0  0  0  0  0
   17.2582   -6.9565   16.0317 H   0  0  0  0  0  0  0  0  0  0  0  0
   16.3898   -6.3058   14.7164 H   0  0  0  0  0  0  0  0  0  0  0  0
   18.5648   -8.1554   10.6566 S   0  0  0  0  0  0  0  0  0  0  0  0
   18.4756   -8.5548    5.5731 N   0  0  0  0  0  0  0  0  0  0  0  0
   17.8821   -8.9520    6.7260 C   0  0  0  0  0  0  0  0  0  0  0  0
   16.8220   -9.7966    6.7734 N   0  0  0  0  0  0  0  0  0  0  0  0
   16.2934  -10.1393    7.9843 C   0  0  0  0  0  0  0  0  0  0  0  0
   16.8254   -9.6393    9.1407 N   0  0  0  0  0  0  0  0  0  0  0  0
   17.8924   -8.7911    9.1210 C   0  0  0  0  0  0  0  0  0  0  0  0
   18.4268   -8.4402    7.8858 C   0  0  0  0  0  0  0  0  0  0  0  0
   19.7182   -7.4370    7.4985 S   0  0  0  0  0  0  0  0  0  0  0  0
   19.5077   -7.7143    5.8359 C   0  0  0  0  0  0  0  0  0  0  0  0
   20.3197   -7.1354    4.8100 N   0  0  0  0  0  0  0  0  0  0  0  0
   19.8030   -6.7625    3.5109 C   0  0  0  0  0  0  0  0  0  0  0  0
   20.9548   -6.0841    2.7941 C   0  0  0  0  0  0  0  0  0  0  0  0
   22.2069   -6.3794    3.6099 C   0  0  0  0  0  0  0  0  0  0  0  0
   21.7331   -6.8659    4.9662 C   0  0  0  0  0  0  0  0  0  0  0  0
 18 19  1  0  0  0
 19 20  2  0  0  0
 20 21  1  0  0  0
 21 22  2  0  0  0
 22 23  1  0  0  0
 23 17  1  0  0  0
 17  1  1  0  0  0
  1  2  1  0  0  0
  2  3  2  0  0  0
  2  4  1  0  0  0
  4  6  1  0  0  0
  6  7  2  0  0  0
  7  8  1  0  0  0
  8  9  2  0  0  0
  9 10  1  0  0  0
 10 11  2  0  0  0
 11 12  1  0  0  0
 12 13  1  0  0  0
 12 14  2  0  0  0
 23 24  2  0  0  0
 24 25  1  0  0  0
 25 26  1  0  0  0
 26 27  1  0  0  0
 27 28  1  0  0  0
 28 29  1  0  0  0
 29 30  1  0  0  0
 30 31  1  0  0  0
 26 18  2  0  0  0
 31 27  1  0  0  0
 24 19  1  0  0  0
 11  6  1  0  0  0
  4  5  1  0  0  0
 13 15  1  0  0  0
 13 16  1  0  0  0
M  END
>  <minimizedAffinity>
-3.42272

>  <minimizedRMSD>
1.80777

$$$$
ChemDiv-C548-3601 MolPort-007-642-559 PubChem-20862395 ZINC000009608174


 33 36  0  0  0  0  0  0  0  0999 V2000
   15.9091   -8.2125   17.2675 C   0  0  0  0  0  0  0  0  0  0  0  0
   14.8360   -8.8879   16.4140 C   0  0  0  0  0  0  0  0  0  0  0  0
   15.4736   -9.5713   15.2080 C   0  0  0  0  0  0  0  0  0  0  0  0
   16.5204  -10.5886   15.6656 C   0  0  0  0  0  0  0  0  0  0  0  0
   17.5888   -9.9191   16.5317 C   0  0  0  0  0  0  0  0  0  0  0  0
   16.9440   -9.2358   17.7341 C   0  0  0  0  0  0  0  0  0  0  0  0
   15.9071   -7.6129   19.7297 N   0  0  0  0  0  0  0  0  0  0  0  0
   15.2879   -7.5295   18.4392 C   0  0  0  0  0  0  0  0  0  0  0  0
   14.2169   -6.8869   18.2765 O   0  0  0  0  0  0  0  0  0  0  0  0
   16.7363   -8.1385   19.8032 H   0  0  0  0  0  0  0  0  0  0  0  0
   15.0368   -5.9380   23.0292 C   0  0  0  0  0  0  0  0  0  0  0  0
   13.8975   -6.1516   22.3354 N   0  0  0  0  0  0  0  0  0  0  0  0
   14.1053   -6.7394   21.1589 N   0  0  0  0  0  0  0  0  0  0  0  0
   15.4115   -6.9903   20.9185 C   0  0  0  0  0  0  0  0  0  0  0  0
   16.3916   -6.4792   22.1870 S   0  0  0  0  0  0  0  0  0  0  0  0
   15.0843   -5.1609   24.6394 S   0  0  0  0  0  0  0  0  0  0  0  0
   12.4783   -5.1609   25.4679 C   0  0  0  0  0  0  0  0  0  0  0  0
   13.6486   -6.0967   25.2437 C   0  0  0  0  0  0  0  0  0  0  0  0
   17.1507  -11.2950   14.4719 C   0  0  0  0  0  0  0  0  0  0  0  0
   17.0587  -10.4750   13.2715 N   0  0  0  0  0  0  0  0  0  0  0  0
   16.6691   -9.5615   13.5041 H   0  0  0  0  0  0  0  0  0  0  0  0
   18.6577  -10.2887   12.6355 S   0  0  0  0  0  0  0  0  0  0  0  0
   19.4809   -9.4634   13.5856 O   0  0  0  0  0  0  0  0  0  0  0  0
   19.3068  -11.6333   12.4591 O   0  0  0  0  0  0  0  0  0  0  0  0
   18.5624   -9.4797   11.0764 C   0  0  0  0  0  0  0  0  0  0  0  0
   19.6138   -8.6531   10.6525 C   0  0  0  0  0  0  0  0  0  0  0  0
   19.5552   -7.9923    9.4160 C   0  0  0  0  0  0  0  0  0  0  0  0
   18.4436   -8.1441    8.5785 C   0  0  0  0  0  0  0  0  0  0  0  0
   17.3910   -8.9615    8.9883 C   0  0  0  0  0  0  0  0  0  0  0  0
   16.2819   -9.1573    8.2330 N   0  0  0  0  0  0  0  0  0  0  0  0
   15.4379  -10.1833    9.2187 S   0  0  0  0  0  0  0  0  0  0  0  0
   16.3775  -10.4109   10.5608 N   0  0  0  0  0  0  0  0  0  0  0  0
   17.4457   -9.6349   10.2423 C   0  0  0  0  0  0  0  0  0  0  0  0
 17 18  1  0  0  0
 18 16  1  0  0  0
 16 11  1  0  0  0
 11 12  2  0  0  0
 12 13  1  0  0  0
 13 14  2  0  0  0
 14  7  1  0  0  0
  7  8  1  0  0  0
  8  9  2  0  0  0
  8  1  1  0  0  0
  1  2  1  0  0  0
  2  3  1  0  0  0
  3  4  1  0  0  0
  4 19  1  0  0  0
 19 20  1  0  0  0
 20 22  1  0  0  0
 22 23  2  0  0  0
 22 24  2  0  0  0
 22 25  1  0  0  0
 25 26  2  0  0  0
 26 27  1  0  0  0
 27 28  2  0  0  0
 28 29  1  0  0  0
 29 30  2  0  0  0
 30 31  1  0  0  0
 31 32  1  0  0  0
 32 33  2  0  0  0
  4  5  1  0  0  0
  5  6  1  0  0  0
 14 15  1  0  0  0
 15 11  1  0  0  0
  6  1  1  0  0  0
 33 25  1  0  0  0
 33 29  1  0  0  0
  7 10  1  0  0  0
 20 21  1  0  0  0
M  END
>  <minimizedAffinity>
-3.41530

>  <minimizedRMSD>
2.20471

$$$$
ChemDiv-D483-1272 MCULE-9265363521 MolPort-007-710-902 PubChem-20899032


 35 38  0  0  0  0  0  0  0  0999 V2000
   17.5268  -10.7926   13.8106 C   0  0  0  0  0  0  0  0  0  0  0  0
   18.6305  -10.8674   13.0417 N   0  0  0  0  0  0  0  0  0  0  0  0
   18.4585  -10.0147   12.0398 N   0  0  0  0  0  0  0  0  0  0  0  0
   17.2536   -9.4364   12.2179 C   0  0  0  0  0  0  0  0  0  0  0  0
   16.6444   -9.9070   13.3187 N   0  0  0  0  0  0  0  0  0  0  0  0
   15.3510   -9.5276   13.8645 C   0  0  0  0  0  0  0  0  0  0  0  0
   17.2841  -11.7532   15.3028 S   0  0  0  0  0  0  0  0  0  0  0  0
   18.2163  -10.5678   16.3197 C   0  0  0  0  0  0  0  0  0  0  0  0
   18.7057  -11.2369   17.5911 C   0  0  0  0  0  0  0  0  0  0  0  0
   16.3848   -9.4724   17.6866 N   0  0  0  0  0  0  0  0  0  0  0  0
   17.3635   -9.3868   16.6400 C   0  0  0  0  0  0  0  0  0  0  0  0
   17.5083   -8.3295   15.9704 O   0  0  0  0  0  0  0  0  0  0  0  0
   16.3754  -10.3031   18.2149 H   0  0  0  0  0  0  0  0  0  0  0  0
   13.5471   -6.5242   18.8234 C   0  0  0  0  0  0  0  0  0  0  0  0
   14.5441   -6.9418   19.7107 C   0  0  0  0  0  0  0  0  0  0  0  0
   15.4737   -7.9115   19.3226 C   0  0  0  0  0  0  0  0  0  0  0  0
   15.4193   -8.4733   18.0429 C   0  0  0  0  0  0  0  0  0  0  0  0
   14.4172   -8.0582   17.1532 C   0  0  0  0  0  0  0  0  0  0  0  0
   13.4869   -7.0896   17.5398 C   0  0  0  0  0  0  0  0  0  0  0  0
   11.5998   -5.0593   18.3987 C   0  0  0  0  0  0  0  0  0  0  0  0
   12.6367   -5.5482   19.2382 O   0  0  0  0  0  0  0  0  0  0  0  0
   16.6961   -8.3751   11.3249 C   0  0  0  0  0  0  0  0  0  0  0  0
   17.0937   -8.6269    9.8976 C   0  0  0  0  0  0  0  0  0  0  0  0
   16.4615   -9.6250    9.1419 C   0  0  0  0  0  0  0  0  0  0  0  0
   15.3534  -10.4467    9.7112 C   0  0  0  0  0  0  0  0  0  0  0  0
   16.8569   -9.8560    7.8660 N   0  0  0  0  0  0  0  0  0  0  0  0
   17.8616   -9.1442    7.2965 C   0  0  0  0  0  0  0  0  0  0  0  0
   18.2363   -9.4255    5.9801 C   0  0  0  0  0  0  0  0  0  0  0  0
   19.2731   -8.7025    5.3930 C   0  0  0  0  0  0  0  0  0  0  0  0
   19.9233   -7.7096    6.1229 C   0  0  0  0  0  0  0  0  0  0  0  0
   21.0326   -6.9329    5.5113 C   0  0  0  0  0  0  0  0  0  0  0  0
   19.5246   -7.4506    7.4350 C   0  0  0  0  0  0  0  0  0  0  0  0
   18.5068   -8.1594    8.0103 N   0  0  0  0  0  0  0  0  0  0  0  0
   18.1323   -7.8930    9.2998 C   0  0  0  0  0  0  0  0  0  0  0  0
   18.7175   -6.9890    9.9602 O   0  0  0  0  0  0  0  0  0  0  0  0
 20 21  1  0  0  0
 21 14  1  0  0  0
 14 15  2  0  0  0
 15 16  1  0  0  0
 16 17  2  0  0  0
 17 10  1  0  0  0
 17 18  1  0  0  0
 10 11  1  0  0  0
 11 12  2  0  0  0
  8 11  1  0  0  0
  8  9  1  0  0  0
  8  7  1  0  0  0
  7  1  1  0  0  0
  1  2  2  0  0  0
  2  3  1  0  0  0
  3  4  2  0  0  0
  4 22  1  0  0  0
  4  5  1  0  0  0
 22 23  1  0  0  0
 23 24  2  0  0  0
 24 25  1  0  0  0
 24 26  1  0  0  0
 26 27  2  0  0  0
 27 28  1  0  0  0
 28 29  2  0  0  0
 29 30  1  0  0  0
 30 31  1  0  0  0
 30 32  2  0  0  0
 32 33  1  0  0  0
 33 34  1  0  0  0
 33 27  1  0  0  0
 34 35  2  0  0  0
 34 23  1  0  0  0
  5  6  1  0  0  0
  5  1  1  0  0  0
 18 19  2  0  0  0
 19 14  1  0  0  0
 10 13  1  0  0  0
M  END
>  <minimizedAffinity>
-3.39220

>  <minimizedRMSD>
2.78974

$$$$
ChemDiv-G072-2158 MCULE-8572188291 MolPort-007-825-489 PubChem-20939484 ZINC000020984159 ZINC20984159


 27 30  0  0  0  0  0  0  0  0999 V2000
   15.2335   -7.8335   17.9492 C   0  0  0  0  0  0  0  0  0  0  0  0
   16.1081   -8.7732   18.5320 C   0  0  0  0  0  0  0  0  0  0  0  0
   16.8984   -9.6181   17.7349 C   0  0  0  0  0  0  0  0  0  0  0  0
   16.8003   -9.5087   16.3491 C   0  0  0  0  0  0  0  0  0  0  0  0
   17.5062  -10.2634   15.4702 N   0  0  0  0  0  0  0  0  0  0  0  0
   17.1944   -9.9295   14.1947 C   0  0  0  0  0  0  0  0  0  0  0  0
   16.0442   -8.6893   14.1077 S   0  0  0  0  0  0  0  0  0  0  0  0
   15.9407   -8.5846   15.7782 C   0  0  0  0  0  0  0  0  0  0  0  0
   15.1483   -7.7372   16.5461 C   0  0  0  0  0  0  0  0  0  0  0  0
   12.4351   -6.2287   20.1129 C   0  0  0  0  0  0  0  0  0  0  0  0
   13.0888   -7.2072   19.2057 C   0  0  0  0  0  0  0  0  0  0  0  0
   12.4350   -8.2033   18.7983 O   0  0  0  0  0  0  0  0  0  0  0  0
   14.4509   -6.9974   18.8127 N   0  0  0  0  0  0  0  0  0  0  0  0
   14.8956   -6.1963   19.1728 H   0  0  0  0  0  0  0  0  0  0  0  0
   17.9345  -10.7160   12.7690 S   0  0  0  0  0  0  0  0  0  0  0  0
   16.6157  -10.1374   11.6482 C   0  0  0  0  0  0  0  0  0  0  0  0
   17.1291   -9.6559   10.3251 C   0  0  0  0  0  0  0  0  0  0  0  0
   16.5551  -10.1672    9.1536 C   0  0  0  0  0  0  0  0  0  0  0  0
   17.0240   -9.7188    7.9142 C   0  0  0  0  0  0  0  0  0  0  0  0
   16.5115  -10.1737    6.8571 O   0  0  0  0  0  0  0  0  0  0  0  0
   18.0306   -8.7933    7.8787 N   0  0  0  0  0  0  0  0  0  0  0  0
   18.6239   -8.2279    6.7814 C   0  0  0  0  0  0  0  0  0  0  0  0
   18.2487   -8.5466    5.3728 C   0  0  0  0  0  0  0  0  0  0  0  0
   19.6340   -7.3035    7.0636 C   0  0  0  0  0  0  0  0  0  0  0  0
   19.7743   -7.2050    8.7476 S   0  0  0  0  0  0  0  0  0  0  0  0
   18.5644   -8.3238    9.0274 C   0  0  0  0  0  0  0  0  0  0  0  0
   18.1343   -8.7384   10.2432 N   0  0  0  0  0  0  0  0  0  0  0  0
 10 11  1  0  0  0
 11 12  2  0  0  0
 11 13  1  0  0  0
 13  1  1  0  0  0
  1  2  2  0  0  0
  2  3  1  0  0  0
  3  4  2  0  0  0
  4  5  1  0  0  0
  5  6  2  0  0  0
  6 15  1  0  0  0
  6  7  1  0  0  0
 15 16  1  0  0  0
 16 17  1  0  0  0
 17 18  2  0  0  0
 18 19  1  0  0  0
 19 20  2  0  0  0
 19 21  1  0  0  0
 21 22  1  0  0  0
 22 23  1  0  0  0
 22 24  2  0  0  0
 24 25  1  0  0  0
 25 26  1  0  0  0
 26 27  2  0  0  0
 26 21  1  0  0  0
 27 17  1  0  0  0
  7  8  1  0  0  0
  8  9  2  0  0  0
  8  4  1  0  0  0
  9  1  1  0  0  0
 13 14  1  0  0  0
M  END
>  <minimizedAffinity>
-3.29621

>  <minimizedRMSD>
2.36123

$$$$
ChemDiv-G583-0232 MCULE-2104466810 MolPort-010-842-101 PubChem-53086512 ZINC000064960120


 31 33  0  0  0  0  0  0  0  0999 V2000
   18.2783   -9.5356   12.1225 N   0  0  0  0  0  0  0  0  0  0  0  0
   18.5811   -8.7275   12.5963 H   0  0  0  0  0  0  0  0  0  0  0  0
   15.9096   -9.5567    9.2486 C   0  0  0  0  0  0  0  0  0  0  0  0
   14.6471   -9.8868    9.1680 O   0  0  0  0  0  0  0  0  0  0  0  0
   14.2069  -10.2405   10.3453 N   0  0  0  0  0  0  0  0  0  0  0  0
   15.2399  -10.1380   11.2157 C   0  0  0  0  0  0  0  0  0  0  0  0
   15.0833  -10.3452   12.6799 C   0  0  0  0  0  0  0  0  0  0  0  0
   16.3631   -9.7100   10.5241 C   0  0  0  0  0  0  0  0  0  0  0  0
   17.6907   -9.3752   10.8285 C   0  0  0  0  0  0  0  0  0  0  0  0
   18.4582   -8.8786    9.8139 N   0  0  0  0  0  0  0  0  0  0  0  0
   17.9764   -8.7355    8.5377 C   0  0  0  0  0  0  0  0  0  0  0  0
   16.6874   -9.0831    8.2481 N   0  0  0  0  0  0  0  0  0  0  0  0
   18.8445   -8.2072    7.4795 C   0  0  0  0  0  0  0  0  0  0  0  0
   19.9473   -7.6728    7.7794 O   0  0  0  0  0  0  0  0  0  0  0  0
   18.4431   -8.3044    6.1437 O   0  0  0  0  0  0  0  0  0  0  0  0
   19.3566   -8.5841    5.0902 C   0  0  0  0  0  0  0  0  0  0  0  0
   19.8798   -7.2909    4.4933 C   0  0  0  0  0  0  0  0  0  0  0  0
   18.4553  -10.8197   12.7803 C   0  0  0  0  0  0  0  0  0  0  0  0
   19.0926  -10.6201   14.1467 C   0  0  0  0  0  0  0  0  0  0  0  0
   18.1328   -9.9941   15.1037 C   0  0  0  0  0  0  0  0  0  0  0  0
   16.8502  -10.5293   15.2771 C   0  0  0  0  0  0  0  0  0  0  0  0
   15.9614   -9.9395   16.1803 C   0  0  0  0  0  0  0  0  0  0  0  0
   16.3530   -8.8169   16.9183 C   0  0  0  0  0  0  0  0  0  0  0  0
   17.6361   -8.2853   16.7480 C   0  0  0  0  0  0  0  0  0  0  0  0
   18.5252   -8.8746   15.8446 C   0  0  0  0  0  0  0  0  0  0  0  0
   15.2334   -8.0685   18.0417 S   0  0  0  0  0  0  0  0  0  0  0  0
   16.1099   -7.3424   19.3418 N   0  0  0  0  0  0  0  0  0  0  0  0
   14.3073   -9.1102   18.6039 O   0  0  0  0  0  0  0  0  0  0  0  0
   14.4323   -7.0168   17.3281 O   0  0  0  0  0  0  0  0  0  0  0  0
   16.6537   -8.0567   19.8261 H   0  0  0  0  0  0  0  0  0  0  0  0
   15.4551   -6.9125   19.9951 H   0  0  0  0  0  0  0  0  0  0  0  0
  3  4  1  0  0  0
  4  5  1  0  0  0
  5  6  2  0  0  0
  6  7  1  0  0  0
  6  8  1  0  0  0
  8  9  1  0  0  0
  9  1  1  0  0  0
  1 18  1  0  0  0
 18 19  1  0  0  0
 19 20  1  0  0  0
 20 21  2  0  0  0
 21 22  1  0  0  0
 22 23  2  0  0  0
 23 24  1  0  0  0
 24 25  2  0  0  0
 23 26  1  0  0  0
 26 27  1  0  0  0
 26 28  2  0  0  0
 26 29  2  0  0  0
  9 10  2  0  0  0
 10 11  1  0  0  0
 11 13  1  0  0  0
 13 15  1  0  0  0
 15 16  1  0  0  0
 16 17  1  0  0  0
 13 14  2  0  0  0
 11 12  2  0  0  0
  8  3  2  0  0  0
 25 20  1  0  0  0
 12  3  1  0  0  0
  1  2  1  0  0  0
 27 30  1  0  0  0
 27 31  1  0  0  0
M  END
>  <minimizedAffinity>
-3.28062

>  <minimizedRMSD>
2.17150

$$$$
ChemDiv-C656-0572 MCULE-9717181966 MolPort-003-042-701 PubChem-27396701 ZINC000016890483


 34 37  0  0  0  0  0  0  0  0999 V2000
   18.5006   -8.6667    8.5680 C   0  0  0  0  0  0  0  0  0  0  0  0
   17.3605   -9.3694    8.3697 N   0  0  0  0  0  0  0  0  0  0  0  0
   16.7400   -9.8928    9.4709 C   0  0  0  0  0  0  0  0  0  0  0  0
   17.2634   -9.7157   10.7311 N   0  0  0  0  0  0  0  0  0  0  0  0
   18.4231   -8.9990   10.9142 C   0  0  0  0  0  0  0  0  0  0  0  0
   18.9217   -8.8352   12.0601 O   0  0  0  0  0  0  0  0  0  0  0  0
   19.0366   -8.4713    9.7884 C   0  0  0  0  0  0  0  0  0  0  0  0
   20.1614   -7.7439    9.6621 N   0  0  0  0  0  0  0  0  0  0  0  0
   20.2871   -7.5120    8.3535 N   0  0  0  0  0  0  0  0  0  0  0  0
   19.2876   -8.0612    7.6646 N   0  0  0  0  0  0  0  0  0  0  0  0
   19.1425   -7.9908    6.2361 C   0  0  0  0  0  0  0  0  0  0  0  0
   18.1195   -8.6910    5.5781 C   0  0  0  0  0  0  0  0  0  0  0  0
   17.9753   -8.5992    4.1916 C   0  0  0  0  0  0  0  0  0  0  0  0
   18.8558   -7.8083    3.4485 C   0  0  0  0  0  0  0  0  0  0  0  0
   19.8851   -7.1090    4.0852 C   0  0  0  0  0  0  0  0  0  0  0  0
   20.0216   -7.2003    5.4798 C   0  0  0  0  0  0  0  0  0  0  0  0
   20.7542   -6.3326    3.3127 O   0  0  0  0  0  0  0  0  0  0  0  0
   21.3480   -5.1346    3.7973 C   0  0  0  0  0  0  0  0  0  0  0  0
   16.5613  -10.3167   11.8612 C   0  0  0  0  0  0  0  0  0  0  0  0
   17.4860  -11.1541   12.7000 C   0  0  0  0  0  0  0  0  0  0  0  0
   18.2877  -11.9517   12.1410 O   0  0  0  0  0  0  0  0  0  0  0  0
   17.4004  -11.1534   14.1309 N   0  0  0  0  0  0  0  0  0  0  0  0
   17.8147  -11.9158   14.5962 H   0  0  0  0  0  0  0  0  0  0  0  0
   16.7763  -10.1621   14.9572 C   0  0  0  0  0  0  0  0  0  0  0  0
   16.7649  -10.3515   16.3425 C   0  0  0  0  0  0  0  0  0  0  0  0
   16.2056   -9.3861   17.1847 C   0  0  0  0  0  0  0  0  0  0  0  0
   15.6609   -8.2126   16.6533 C   0  0  0  0  0  0  0  0  0  0  0  0
   15.6790   -8.0167   15.2639 C   0  0  0  0  0  0  0  0  0  0  0  0
   16.2365   -8.9832   14.4221 C   0  0  0  0  0  0  0  0  0  0  0  0
   15.1065   -7.2424   17.5535 N   0  0  0  0  0  0  0  0  0  0  0  0
   13.8555   -7.3338   18.2474 C   0  0  0  0  0  0  0  0  0  0  0  0
   13.4224   -6.2071   19.1139 C   0  0  0  0  0  0  0  0  0  0  0  0
   13.1151   -8.3470   18.1366 O   0  0  0  0  0  0  0  0  0  0  0  0
   15.6402   -6.4302   17.7106 H   0  0  0  0  0  0  0  0  0  0  0  0
  1  2  1  0  0  0
  2  3  2  0  0  0
  3  4  1  0  0  0
  4  5  1  0  0  0
  5  6  2  0  0  0
  5  7  1  0  0  0
  7  8  1  0  0  0
  8  9  2  0  0  0
  9 10  1  0  0  0
 10 11  1  0  0  0
 11 12  2  0  0  0
 12 13  1  0  0  0
 13 14  2  0  0  0
 14 15  1  0  0  0
 15 17  1  0  0  0
 17 18  1  0  0  0
 15 16  2  0  0  0
  4 19  1  0  0  0
 19 20  1  0  0  0
 20 21  2  0  0  0
 20 22  1  0  0  0
 22 24  1  0  0  0
 24 25  2  0  0  0
 25 26  1  0  0  0
 26 27  2  0  0  0
 27 28  1  0  0  0
 28 29  2  0  0  0
 27 30  1  0  0  0
 30 31  1  0  0  0
 31 32  1  0  0  0
 31 33  2  0  0  0
  7  1  2  0  0  0
 16 11  1  0  0  0
 29 24  1  0  0  0
 10  1  1  0  0  0
 22 23  1  0  0  0
 30 34  1  0  0  0
M  END
>  <minimizedAffinity>
-3.25974

>  <minimizedRMSD>
1.77446

$$$$
ChemDiv-F583-0344 MCULE-2341244597 MolPort-007-804-769 PubChem-46323045 ZINC000021885495


 34 38  0  0  0  0  0  0  0  0999 V2000
   18.7748   -9.3520   13.6089 N   0  0  0  0  0  0  0  0  0  0  0  0
   19.6556  -10.4790   13.9896 C   0  0  0  0  0  0  0  0  0  0  0  0
   18.9487  -11.6040   14.7726 C   0  0  0  0  0  0  0  0  0  0  0  0
   17.9923  -11.0219   15.7577 C   0  0  0  0  0  0  0  0  0  0  0  0
   17.5815   -9.7228   15.7270 C   0  0  0  0  0  0  0  0  0  0  0  0
   16.6480   -9.6144   16.7435 C   0  0  0  0  0  0  0  0  0  0  0  0
   16.5007  -10.8218   17.3360 N   0  0  0  0  0  0  0  0  0  0  0  0
   17.3181  -11.6678   16.7245 N   0  0  0  0  0  0  0  0  0  0  0  0
   17.4300  -13.0755   17.0641 C   0  0  0  0  0  0  0  0  0  0  0  0
   18.1094   -8.7116   14.7597 C   0  0  0  0  0  0  0  0  0  0  0  0
   15.8953   -8.4146   17.1330 C   0  0  0  0  0  0  0  0  0  0  0  0
   15.4824   -7.6118   16.2528 O   0  0  0  0  0  0  0  0  0  0  0  0
   15.6359   -8.1625   18.5165 N   0  0  0  0  0  0  0  0  0  0  0  0
   16.0128   -8.7780   19.1860 H   0  0  0  0  0  0  0  0  0  0  0  0
   14.8382   -7.0344   18.9783 C   0  0  0  0  0  0  0  0  0  0  0  0
   13.3844   -7.3253   18.8170 C   0  0  0  0  0  0  0  0  0  0  0  0
   12.6427   -6.6588   17.8354 C   0  0  0  0  0  0  0  0  0  0  0  0
   11.2834   -6.9420   17.6720 C   0  0  0  0  0  0  0  0  0  0  0  0
   10.6644   -7.8936   18.4883 C   0  0  0  0  0  0  0  0  0  0  0  0
   11.4048   -8.5628   19.4677 C   0  0  0  0  0  0  0  0  0  0  0  0
   12.7643   -8.2800   19.6315 C   0  0  0  0  0  0  0  0  0  0  0  0
    9.3476   -8.1681   18.3296 F   0  0  0  0  0  0  0  0  0  0  0  0
   17.6050   -9.8184   12.4010 S   0  0  0  0  0  0  0  0  0  0  0  0
   16.2684   -9.2289   12.7553 O   0  0  0  0  0  0  0  0  0  0  0  0
   17.4851  -11.3165   12.3462 O   0  0  0  0  0  0  0  0  0  0  0  0
   18.0857   -9.2072   10.8193 C   0  0  0  0  0  0  0  0  0  0  0  0
   19.2088   -8.3743   10.7078 C   0  0  0  0  0  0  0  0  0  0  0  0
   19.6063   -7.8627    9.4636 C   0  0  0  0  0  0  0  0  0  0  0  0
   18.8847   -8.1689    8.3040 C   0  0  0  0  0  0  0  0  0  0  0  0
   17.7617   -8.9888    8.4001 C   0  0  0  0  0  0  0  0  0  0  0  0
   17.0082   -9.3224    7.3233 N   0  0  0  0  0  0  0  0  0  0  0  0
   15.8620  -10.2656    8.0529 S   0  0  0  0  0  0  0  0  0  0  0  0
   16.2435  -10.2922    9.6620 N   0  0  0  0  0  0  0  0  0  0  0  0
   17.3538   -9.5109    9.6613 C   0  0  0  0  0  0  0  0  0  0  0  0
 23 24  2  0  0  0
 23 25  2  0  0  0
 23  1  1  0  0  0
  1  2  1  0  0  0
  2  3  1  0  0  0
  3  4  1  0  0  0
  4  5  2  0  0  0
  5  6  1  0  0  0
  6 11  1  0  0  0
 11 12  2  0  0  0
 11 13  1  0  0  0
 13 15  1  0  0  0
 15 16  1  0  0  0
 16 17  2  0  0  0
 17 18  1  0  0  0
 18 19  2  0  0  0
 19 20  1  0  0  0
 20 21  2  0  0  0
 19 22  1  0  0  0
  6  7  2  0  0  0
  7  8  1  0  0  0
  8  9  1  0  0  0
  5 10  1  0  0  0
 23 26  1  0  0  0
 26 27  2  0  0  0
 27 28  1  0  0  0
 28 29  2  0  0  0
 29 30  1  0  0  0
 30 31  2  0  0  0
 31 32  1  0  0  0
 32 33  1  0  0  0
 33 34  2  0  0  0
 10  1  1  0  0  0
 34 26  1  0  0  0
  8  4  1  0  0  0
 34 30  1  0  0  0
 21 16  1  0  0  0
 13 14  1  0  0  0
M  END
>  <minimizedAffinity>
-3.20243

>  <minimizedRMSD>
1.30701

$$$$
ChemDiv-K284-5724 CHEMBL1472594 MCULE-5515606110 MolPort-005-283-911 PubChem-3236801 ZINC000002975651 ZINC02975651


 36 39  0  0  0  0  0  0  0  0999 V2000
   18.2169   -8.7134   11.6962 C   0  0  0  0  0  0  0  0  0  0  0  0
   18.0986   -8.6289   10.2393 N   0  0  0  0  0  0  0  0  0  0  0  0
   19.1742   -8.2244    9.4899 C   0  0  0  0  0  0  0  0  0  0  0  0
   20.2763   -7.9585   10.0496 O   0  0  0  0  0  0  0  0  0  0  0  0
   19.0528   -8.0985    8.1001 C   0  0  0  0  0  0  0  0  0  0  0  0
   20.1358   -7.6862    7.2966 C   0  0  0  0  0  0  0  0  0  0  0  0
   19.9202   -7.5895    5.9249 C   0  0  0  0  0  0  0  0  0  0  0  0
   18.7205   -7.8766    5.3590 C   0  0  0  0  0  0  0  0  0  0  0  0
   18.8008   -7.6927    3.9917 O   0  0  0  0  0  0  0  0  0  0  0  0
   20.1335   -7.2651    3.6797 C   0  0  0  0  0  0  0  0  0  0  0  0
   20.8125   -7.2113    4.9429 O   0  0  0  0  0  0  0  0  0  0  0  0
   17.6229   -8.2819    6.1144 C   0  0  0  0  0  0  0  0  0  0  0  0
   17.7972   -8.3904    7.5067 C   0  0  0  0  0  0  0  0  0  0  0  0
   16.7599   -8.7700    8.2902 N   0  0  0  0  0  0  0  0  0  0  0  0
   16.8941   -8.8922    9.6371 C   0  0  0  0  0  0  0  0  0  0  0  0
   15.4483   -9.3749   10.5929 S   0  0  0  0  0  0  0  0  0  0  0  0
   15.0892  -10.8004    9.5235 C   0  0  0  0  0  0  0  0  0  0  0  0
   16.3376  -11.3898    9.0318 C   0  0  0  0  0  0  0  0  0  0  0  0
   17.3204  -11.8616    8.6380 N   0  0  0  0  0  0  0  0  0  0  0  0
   18.1957  -10.1605   12.1548 C   0  0  0  0  0  0  0  0  0  0  0  0
   17.4288  -10.2529   13.4592 C   0  0  0  0  0  0  0  0  0  0  0  0
   18.3799  -10.3805   14.6392 C   0  0  0  0  0  0  0  0  0  0  0  0
   18.3332   -9.1511   15.5417 C   0  0  0  0  0  0  0  0  0  0  0  0
   16.2304   -8.4834   16.7865 N   0  0  0  0  0  0  0  0  0  0  0  0
   16.9688   -8.5447   15.5623 C   0  0  0  0  0  0  0  0  0  0  0  0
   16.4715   -8.1041   14.4912 O   0  0  0  0  0  0  0  0  0  0  0  0
   16.6521   -8.8122   17.6131 H   0  0  0  0  0  0  0  0  0  0  0  0
   14.8750   -7.9510   16.8514 C   0  0  0  0  0  0  0  0  0  0  0  0
   13.8436   -6.8055   20.8647 C   0  0  0  0  0  0  0  0  0  0  0  0
   12.9594   -6.5672   19.8064 C   0  0  0  0  0  0  0  0  0  0  0  0
   13.2959   -6.9511   18.5044 C   0  0  0  0  0  0  0  0  0  0  0  0
   14.5180   -7.5807   18.2512 C   0  0  0  0  0  0  0  0  0  0  0  0
   15.4088   -7.8203   19.3053 C   0  0  0  0  0  0  0  0  0  0  0  0
   15.0729   -7.4371   20.6079 C   0  0  0  0  0  0  0  0  0  0  0  0
   14.3995   -6.3702   23.2353 C   0  0  0  0  0  0  0  0  0  0  0  0
   13.4788   -6.4034   22.1530 O   0  0  0  0  0  0  0  0  0  0  0  0
 35 36  1  0  0  0
 36 29  1  0  0  0
 29 30  2  0  0  0
 30 31  1  0  0  0
 31 32  2  0  0  0
 32 28  1  0  0  0
 32 33  1  0  0  0
 28 24  1  0  0  0
 24 25  1  0  0  0
 25 26  2  0  0  0
 25 23  1  0  0  0
 23 22  1  0  0  0
 22 21  1  0  0  0
 21 20  1  0  0  0
 20  1  1  0  0  0
  1  2  1  0  0  0
  2  3  1  0  0  0
  3  4  2  0  0  0
  3  5  1  0  0  0
  5  6  2  0  0  0
  6  7  1  0  0  0
  7  8  2  0  0  0
  8  9  1  0  0  0
  8 12  1  0  0  0
  9 10  1  0  0  0
 10 11  1  0  0  0
 11  7  1  0  0  0
 12 13  2  0  0  0
 13 14  1  0  0  0
 13  5  1  0  0  0
 14 15  2  0  0  0
 15 16  1  0  0  0
 15  2  1  0  0  0
 16 17  1  0  0  0
 17 18  1  0  0  0
 18 19  3  0  0  0
 33 34  2  0  0  0
 34 29  1  0  0  0
 24 27  1  0  0  0
M  END
>  <minimizedAffinity>
-3.07534

>  <minimizedRMSD>
2.55926

$$$$
ChemDiv-S021-1392 MolPort-035-696-159 PubChem-87052482 ZINC000097112420


 34 39  0  0  0  0  0  0  0  0999 V2000
   15.2363   -7.1626   20.9187 C   0  0  0  0  0  0  0  0  0  0  0  0
   16.4501   -7.5648   20.3399 C   0  0  0  0  0  0  0  0  0  0  0  0
   16.0943   -7.7147   19.0181 C   0  0  0  0  0  0  0  0  0  0  0  0
   16.8876   -8.0959   17.9888 N   0  0  0  0  0  0  0  0  0  0  0  0
   16.3525   -8.1953   16.7368 C   0  0  0  0  0  0  0  0  0  0  0  0
   14.9814   -7.8810   16.5190 C   0  0  0  0  0  0  0  0  0  0  0  0
   14.3492   -8.0427   15.1633 C   0  0  0  0  0  0  0  0  0  0  0  0
   15.3839   -7.9388   14.0525 C   0  0  0  0  0  0  0  0  0  0  0  0
   16.5126   -8.8088   14.3630 N   0  0  0  0  0  0  0  0  0  0  0  0
   17.2586   -8.5767   15.5985 C   0  0  0  0  0  0  0  0  0  0  0  0
   16.8363   -9.9354   13.5336 C   0  0  0  0  0  0  0  0  0  0  0  0
   17.3667  -10.9542   14.0527 O   0  0  0  0  0  0  0  0  0  0  0  0
   14.2009   -7.4988   17.6257 C   0  0  0  0  0  0  0  0  0  0  0  0
   12.9750   -7.2296   17.5016 O   0  0  0  0  0  0  0  0  0  0  0  0
   14.8039   -7.4287   18.8377 N   0  0  0  0  0  0  0  0  0  0  0  0
   14.2549   -7.0885   19.9868 N   0  0  0  0  0  0  0  0  0  0  0  0
   13.3167   -6.8313   20.1383 H   0  0  0  0  0  0  0  0  0  0  0  0
   16.5472   -9.9513   12.0872 C   0  0  0  0  0  0  0  0  0  0  0  0
   15.4500  -10.5367   11.5501 N   0  0  0  0  0  0  0  0  0  0  0  0
   15.5011  -10.4312   10.2250 N   0  0  0  0  0  0  0  0  0  0  0  0
   16.6402   -9.7878    9.9196 C   0  0  0  0  0  0  0  0  0  0  0  0
   17.1310   -9.4886    8.6514 C   0  0  0  0  0  0  0  0  0  0  0  0
   18.3827   -8.8494    8.5759 C   0  0  0  0  0  0  0  0  0  0  0  0
   19.1051   -8.5414    9.7507 C   0  0  0  0  0  0  0  0  0  0  0  0
   18.5823   -8.8623   11.0170 C   0  0  0  0  0  0  0  0  0  0  0  0
   17.3306   -9.4748   11.0567 C   0  0  0  0  0  0  0  0  0  0  0  0
   14.8289  -10.7629    9.5867 H   0  0  0  0  0  0  0  0  0  0  0  0
   12.8607   -5.1876   21.8414 Cl  0  0  0  0  0  0  0  0  0  0  0  0
   14.0380   -6.0033   22.8616 C   0  0  0  0  0  0  0  0  0  0  0  0
   15.0536   -6.8593   22.3613 C   0  0  0  0  0  0  0  0  0  0  0  0
   15.9380   -7.4555   23.2762 C   0  0  0  0  0  0  0  0  0  0  0  0
   15.8280   -7.2175   24.6469 C   0  0  0  0  0  0  0  0  0  0  0  0
   14.8274   -6.3755   25.1281 C   0  0  0  0  0  0  0  0  0  0  0  0
   13.9384   -5.7728   24.2382 C   0  0  0  0  0  0  0  0  0  0  0  0
 28 29  1  0  0  0
 29 30  2  0  0  0
 30 31  1  0  0  0
 31 32  2  0  0  0
 32 33  1  0  0  0
 33 34  2  0  0  0
 30  1  1  0  0  0
  1  2  2  0  0  0
  2  3  1  0  0  0
  3  4  2  0  0  0
  4  5  1  0  0  0
  5  6  2  0  0  0
  6  7  1  0  0  0
  7  8  1  0  0  0
  8  9  1  0  0  0
  9 10  1  0  0  0
  9 11  1  0  0  0
 11 12  2  0  0  0
 11 18  1  0  0  0
 18 19  2  0  0  0
 19 20  1  0  0  0
 20 21  1  0  0  0
 21 22  2  0  0  0
 22 23  1  0  0  0
 23 24  2  0  0  0
 24 25  1  0  0  0
 25 26  2  0  0  0
  6 13  1  0  0  0
 13 14  2  0  0  0
 13 15  1  0  0  0
 15 16  1  0  0  0
 34 29  1  0  0  0
 16  1  1  0  0  0
 15  3  1  0  0  0
 10  5  1  0  0  0
 26 18  1  0  0  0
 26 21  1  0  0  0
 20 27  1  0  0  0
 16 17  1  0  0  0
M  END
>  <minimizedAffinity>
-3.07137

>  <minimizedRMSD>
3.30290

$$$$
ChemDiv-G756-2775 MCULE-5708328137 MolPort-007-880-084 PubChem-46356795 ZINC000033068311 ZINC33068311


 32 35  0  0  0  0  0  0  0  0999 V2000
   16.2788   -9.9407   15.6804 C   0  0  0  0  0  0  0  0  0  0  0  0
   17.0031   -9.7172   14.4995 C   0  0  0  0  0  0  0  0  0  0  0  0
   18.3046  -10.2081   14.3560 C   0  0  0  0  0  0  0  0  0  0  0  0
   18.8879  -10.9309   15.4084 C   0  0  0  0  0  0  0  0  0  0  0  0
   18.1734  -11.1558   16.5875 C   0  0  0  0  0  0  0  0  0  0  0  0
   16.8737  -10.6603   16.7220 C   0  0  0  0  0  0  0  0  0  0  0  0
   14.5799   -8.1710   16.4187 C   0  0  0  0  0  0  0  0  0  0  0  0
   15.4518   -7.3283   16.7591 O   0  0  0  0  0  0  0  0  0  0  0  0
   14.9478   -9.4389   15.8604 N   0  0  0  0  0  0  0  0  0  0  0  0
   14.2116  -10.0248   15.5710 H   0  0  0  0  0  0  0  0  0  0  0  0
   13.1381   -7.8512   16.6164 C   0  0  0  0  0  0  0  0  0  0  0  0
   12.7458   -8.1509   17.9523 O   0  0  0  0  0  0  0  0  0  0  0  0
   12.7456   -3.5782   19.5135 F   0  0  0  0  0  0  0  0  0  0  0  0
   12.7458   -4.9072   19.7741 C   0  0  0  0  0  0  0  0  0  0  0  0
   12.7465   -5.3605   21.0961 C   0  0  0  0  0  0  0  0  0  0  0  0
   12.7468   -6.7322   21.3642 C   0  0  0  0  0  0  0  0  0  0  0  0
   12.7467   -7.6511   20.3103 C   0  0  0  0  0  0  0  0  0  0  0  0
   12.7472   -7.2057   18.9841 C   0  0  0  0  0  0  0  0  0  0  0  0
   12.7454   -5.8258   18.7207 C   0  0  0  0  0  0  0  0  0  0  0  0
   18.9923   -9.9624   13.1651 O   0  0  0  0  0  0  0  0  0  0  0  0
   18.9698  -10.8631   12.0653 C   0  0  0  0  0  0  0  0  0  0  0  0
   18.3910  -10.1832   10.8768 C   0  0  0  0  0  0  0  0  0  0  0  0
   17.0884  -10.4676   10.4780 C   0  0  0  0  0  0  0  0  0  0  0  0
   16.5604   -9.7945    9.3774 C   0  0  0  0  0  0  0  0  0  0  0  0
   15.3802  -10.0521    9.0130 O   0  0  0  0  0  0  0  0  0  0  0  0
   17.3171   -8.8682    8.7103 N   0  0  0  0  0  0  0  0  0  0  0  0
   16.7988   -8.2096    7.6308 C   0  0  0  0  0  0  0  0  0  0  0  0
   17.5550   -7.2594    6.9422 C   0  0  0  0  0  0  0  0  0  0  0  0
   18.8535   -6.9829    7.3653 C   0  0  0  0  0  0  0  0  0  0  0  0
   19.3819   -7.6549    8.4660 C   0  0  0  0  0  0  0  0  0  0  0  0
   18.6004   -8.6006    9.1339 C   0  0  0  0  0  0  0  0  0  0  0  0
   19.1173   -9.2540   10.2065 N   0  0  0  0  0  0  0  0  0  0  0  0
 13 14  1  0  0  0
 14 15  2  0  0  0
 15 16  1  0  0  0
 16 17  2  0  0  0
 17 18  1  0  0  0
 18 12  1  0  0  0
 18 19  2  0  0  0
 12 11  1  0  0  0
 11  7  1  0  0  0
  7  8  2  0  0  0
  7  9  1  0  0  0
  9  1  1  0  0  0
  1  2  2  0  0  0
  2  3  1  0  0  0
  3 20  1  0  0  0
  3  4  2  0  0  0
 20 21  1  0  0  0
 21 22  1  0  0  0
 22 23  2  0  0  0
 23 24  1  0  0  0
 24 25  2  0  0  0
 24 26  1  0  0  0
 26 27  1  0  0  0
 27 28  2  0  0  0
 28 29  1  0  0  0
 29 30  2  0  0  0
 30 31  1  0  0  0
 31 32  2  0  0  0
 31 26  1  0  0  0
 32 22  1  0  0  0
  4  5  1  0  0  0
  5  6  2  0  0  0
  6  1  1  0  0  0
 19 14  1  0  0  0
  9 10  1  0  0  0
M  END
>  <minimizedAffinity>
-3.02749

>  <minimizedRMSD>
3.04652

$$$$
ChemDiv-L466-0688 MCULE-6629356267 MolPort-010-869-477 PubChem-53112305


 30 33  0  0  0  0  0  0  0  0999 V2000
   15.6846   -9.7267   13.0558 C   0  0  0  0  0  0  0  0  0  0  0  0
   14.8592  -10.0058   11.9554 C   0  0  0  0  0  0  0  0  0  0  0  0
   15.3346   -9.8350   10.6553 C   0  0  0  0  0  0  0  0  0  0  0  0
   16.6443   -9.3839   10.4320 C   0  0  0  0  0  0  0  0  0  0  0  0
   17.4624   -9.0953   11.5347 C   0  0  0  0  0  0  0  0  0  0  0  0
   16.9846   -9.2639   12.8352 C   0  0  0  0  0  0  0  0  0  0  0  0
   17.1674   -9.2289    9.0577 C   0  0  0  0  0  0  0  0  0  0  0  0
   16.6300   -9.9722    7.9938 C   0  0  0  0  0  0  0  0  0  0  0  0
   17.1269   -9.8151    6.7377 N   0  0  0  0  0  0  0  0  0  0  0  0
   18.1408   -8.9457    6.4893 C   0  0  0  0  0  0  0  0  0  0  0  0
   18.6322   -8.7792    5.1897 C   0  0  0  0  0  0  0  0  0  0  0  0
   19.6722   -7.8725    4.9494 C   0  0  0  0  0  0  0  0  0  0  0  0
   20.2188   -7.1321    6.0058 C   0  0  0  0  0  0  0  0  0  0  0  0
   19.7271   -7.2934    7.3079 C   0  0  0  0  0  0  0  0  0  0  0  0
   18.6873   -8.1973    7.5522 C   0  0  0  0  0  0  0  0  0  0  0  0
   18.1862   -8.3567    8.8043 N   0  0  0  0  0  0  0  0  0  0  0  0
   15.2467   -9.9040   14.3764 O   0  0  0  0  0  0  0  0  0  0  0  0
   13.9857   -8.9618   16.2432 C   0  0  0  0  0  0  0  0  0  0  0  0
   15.2452   -8.8906   15.3874 C   0  0  0  0  0  0  0  0  0  0  0  0
   16.5172   -8.9135   16.1869 C   0  0  0  0  0  0  0  0  0  0  0  0
   16.5265   -9.3431   17.3770 O   0  0  0  0  0  0  0  0  0  0  0  0
   17.7276   -8.4509   15.5757 N   0  0  0  0  0  0  0  0  0  0  0  0
   17.6863   -8.1095   14.6533 H   0  0  0  0  0  0  0  0  0  0  0  0
   19.0181   -8.4618   16.2555 C   0  0  0  0  0  0  0  0  0  0  0  0
   19.9653   -9.4621   15.6099 C   0  0  0  0  0  0  0  0  0  0  0  0
   19.2449  -10.6939   15.1755 C   0  0  0  0  0  0  0  0  0  0  0  0
   18.4761  -11.4980   15.9962 C   0  0  0  0  0  0  0  0  0  0  0  0
   17.9574  -12.6182   15.3327 C   0  0  0  0  0  0  0  0  0  0  0  0
   18.3134  -12.7027   13.9901 C   0  0  0  0  0  0  0  0  0  0  0  0
   19.2822  -11.3691   13.6439 S   0  0  0  0  0  0  0  0  0  0  0  0
 19 18  1  0  0  0
 19 17  1  0  0  0
 19 20  1  0  0  0
 17  1  1  0  0  0
  1  2  2  0  0  0
  2  3  1  0  0  0
  3  4  2  0  0  0
  4  5  1  0  0  0
  4  7  1  0  0  0
  5  6  2  0  0  0
  6  1  1  0  0  0
  7  8  2  0  0  0
  8  9  1  0  0  0
  9 10  2  0  0  0
 10 11  1  0  0  0
 11 12  2  0  0  0
 12 13  1  0  0  0
 13 14  2  0  0  0
 14 15  1  0  0  0
 15 16  2  0  0  0
 15 10  1  0  0  0
 16  7  1  0  0  0
 20 21  2  0  0  0
 20 22  1  0  0  0
 22 24  1  0  0  0
 24 25  1  0  0  0
 25 26  1  0  0  0
 26 27  2  0  0  0
 27 28  1  0  0  0
 28 29  2  0  0  0
 29 30  1  0  0  0
 30 26  1  0  0  0
 22 23  1  0  0  0
M  END
>  <minimizedAffinity>
-3.01726

>  <minimizedRMSD>
2.73200

$$$$
ChemDiv-L330-0046 MCULE-3597584080 MolPort-010-864-847 PubChem-53107701 ZINC000065024517


 33 36  0  0  0  0  0  0  0  0999 V2000
   17.9463   -9.8058   13.8964 C   0  0  0  0  0  0  0  0  0  0  0  0
   16.2258   -9.1644   15.6257 N   0  0  0  0  0  0  0  0  0  0  0  0
   17.5982   -9.2070   15.2152 C   0  0  0  0  0  0  0  0  0  0  0  0
   18.5117   -8.7201   15.9325 O   0  0  0  0  0  0  0  0  0  0  0  0
   15.5710   -9.5812   15.0202 H   0  0  0  0  0  0  0  0  0  0  0  0
   14.6329   -7.3971   19.1367 C   0  0  0  0  0  0  0  0  0  0  0  0
   15.8575   -8.0700   19.1986 C   0  0  0  0  0  0  0  0  0  0  0  0
   16.3924   -8.6578   18.0490 C   0  0  0  0  0  0  0  0  0  0  0  0
   15.7074   -8.5776   16.8268 C   0  0  0  0  0  0  0  0  0  0  0  0
   14.4842   -7.9007   16.7713 C   0  0  0  0  0  0  0  0  0  0  0  0
   13.9481   -7.3124   17.9205 C   0  0  0  0  0  0  0  0  0  0  0  0
   13.9556   -6.6530   20.5734 S   0  0  0  0  0  0  0  0  0  0  0  0
   13.0448   -5.2555   20.1242 N   0  0  0  0  0  0  0  0  0  0  0  0
   13.0465   -7.6244   21.2726 O   0  0  0  0  0  0  0  0  0  0  0  0
   15.0657   -6.2561   21.5051 O   0  0  0  0  0  0  0  0  0  0  0  0
   12.6512   -4.8231   20.9600 H   0  0  0  0  0  0  0  0  0  0  0  0
   12.2899   -5.5293   19.4954 H   0  0  0  0  0  0  0  0  0  0  0  0
   17.2230   -9.1565   12.8581 O   0  0  0  0  0  0  0  0  0  0  0  0
   16.0141   -9.6468   12.3608 C   0  0  0  0  0  0  0  0  0  0  0  0
   15.0049  -10.0134   13.2091 N   0  0  0  0  0  0  0  0  0  0  0  0
   13.8272  -10.5348   12.7430 C   0  0  0  0  0  0  0  0  0  0  0  0
   13.6305  -10.7123   11.4040 N   0  0  0  0  0  0  0  0  0  0  0  0
   14.6237  -10.3485   10.5594 C   0  0  0  0  0  0  0  0  0  0  0  0
   14.6257  -10.4606    9.2580 O   0  0  0  0  0  0  0  0  0  0  0  0
   15.7544  -10.0127    8.7781 N   0  0  0  0  0  0  0  0  0  0  0  0
   16.5154   -9.5877    9.8195 C   0  0  0  0  0  0  0  0  0  0  0  0
   15.7962   -9.8068   10.9904 C   0  0  0  0  0  0  0  0  0  0  0  0
   17.8501   -8.9812    9.6350 C   0  0  0  0  0  0  0  0  0  0  0  0
   18.0586   -8.0910    8.5710 C   0  0  0  0  0  0  0  0  0  0  0  0
   19.3011   -7.4752    8.3930 C   0  0  0  0  0  0  0  0  0  0  0  0
   20.3439   -7.7368    9.2848 C   0  0  0  0  0  0  0  0  0  0  0  0
   20.1419   -8.6096   10.3566 C   0  0  0  0  0  0  0  0  0  0  0  0
   18.8985   -9.2235   10.5321 C   0  0  0  0  0  0  0  0  0  0  0  0
 12 13  1  0  0  0
 12 14  2  0  0  0
 12 15  2  0  0  0
 12  6  1  0  0  0
  6  7  2  0  0  0
  7  8  1  0  0  0
  8  9  2  0  0  0
  9 10  1  0  0  0
 10 11  2  0  0  0
  9  2  1  0  0  0
  2  3  1  0  0  0
  3  1  1  0  0  0
  1 18  1  0  0  0
 18 19  1  0  0  0
 19 20  2  0  0  0
 20 21  1  0  0  0
 21 22  2  0  0  0
 22 23  1  0  0  0
 23 24  1  0  0  0
 24 25  1  0  0  0
 25 26  2  0  0  0
 26 28  1  0  0  0
 28 29  2  0  0  0
 29 30  1  0  0  0
 30 31  2  0  0  0
 31 32  1  0  0  0
 32 33  2  0  0  0
 26 27  1  0  0  0
  3  4  2  0  0  0
 11  6  1  0  0  0
 27 19  1  0  0  0
 27 23  2  0  0  0
 33 28  1  0  0  0
 13 16  1  0  0  0
 13 17  1  0  0  0
  2  5  1  0  0  0
M  END
>  <minimizedAffinity>
-2.98200

>  <minimizedRMSD>
4.10855

$$$$
ChemDiv-F813-2833 MCULE-9692146207 MolPort-010-828-733 PubChem-53073758 ZINC000064944127


 33 36  0  0  0  0  0  0  0  0999 V2000
   18.4097   -7.8225   10.5092 S   0  0  0  0  0  0  0  0  0  0  0  0
   18.6037   -8.7802    5.5039 N   0  0  0  0  0  0  0  0  0  0  0  0
   17.9426   -9.0462    6.6578 C   0  0  0  0  0  0  0  0  0  0  0  0
   16.8735   -9.8770    6.7372 N   0  0  0  0  0  0  0  0  0  0  0  0
   16.2742  -10.0825    7.9462 C   0  0  0  0  0  0  0  0  0  0  0  0
   16.7446   -9.4596    9.0691 N   0  0  0  0  0  0  0  0  0  0  0  0
   17.8190   -8.6221    9.0171 C   0  0  0  0  0  0  0  0  0  0  0  0
   18.4255   -8.4116    7.7834 C   0  0  0  0  0  0  0  0  0  0  0  0
   19.7454   -7.4615    7.3617 S   0  0  0  0  0  0  0  0  0  0  0  0
   19.6285   -7.9186    5.7282 C   0  0  0  0  0  0  0  0  0  0  0  0
   20.5017   -7.4571    4.6882 N   0  0  0  0  0  0  0  0  0  0  0  0
   21.2597   -6.2155    4.8684 C   0  0  0  0  0  0  0  0  0  0  0  0
   20.6426   -5.0474    4.0896 C   0  0  0  0  0  0  0  0  0  0  0  0
   19.8937   -5.4664    2.8211 C   0  0  0  0  0  0  0  0  0  0  0  0
   20.7577   -6.2342    1.8142 C   0  0  0  0  0  0  0  0  0  0  0  0
   21.4277   -7.4958    2.3747 C   0  0  0  0  0  0  0  0  0  0  0  0
   20.5807   -8.2132    3.4309 C   0  0  0  0  0  0  0  0  0  0  0  0
   19.2523   -9.3208   11.1110 C   0  0  0  0  0  0  0  0  0  0  0  0
   18.4435   -9.9919   12.1669 C   0  0  0  0  0  0  0  0  0  0  0  0
   17.2167  -10.1920   11.9659 O   0  0  0  0  0  0  0  0  0  0  0  0
   19.0760  -10.4035   13.3863 N   0  0  0  0  0  0  0  0  0  0  0  0
   20.0449  -10.2418   13.4528 H   0  0  0  0  0  0  0  0  0  0  0  0
   18.4530  -11.0258   14.5222 C   0  0  0  0  0  0  0  0  0  0  0  0
   18.2862  -12.4194   14.5675 C   0  0  0  0  0  0  0  0  0  0  0  0
   17.6812  -13.0347   15.6633 C   0  0  0  0  0  0  0  0  0  0  0  0
   17.2324  -12.2628   16.7325 C   0  0  0  0  0  0  0  0  0  0  0  0
   17.3886  -10.8768   16.7038 C   0  0  0  0  0  0  0  0  0  0  0  0
   17.9948  -10.2384   15.6099 C   0  0  0  0  0  0  0  0  0  0  0  0
   18.1243   -8.7600   15.6480 C   0  0  0  0  0  0  0  0  0  0  0  0
   19.1719   -8.1537   16.4008 N   0  0  0  0  0  0  0  0  0  0  0  0
   17.3204   -8.0181   15.0242 O   0  0  0  0  0  0  0  0  0  0  0  0
   19.8111   -8.7156   16.8957 H   0  0  0  0  0  0  0  0  0  0  0  0
   19.2562   -7.1732   16.4258 H   0  0  0  0  0  0  0  0  0  0  0  0
  2  3  1  0  0  0
  3  4  2  0  0  0
  4  5  1  0  0  0
  5  6  2  0  0  0
  6  7  1  0  0  0
  7  1  1  0  0  0
  1 18  1  0  0  0
 18 19  1  0  0  0
 19 20  2  0  0  0
 19 21  1  0  0  0
 21 23  1  0  0  0
 23 24  2  0  0  0
 24 25  1  0  0  0
 25 26  2  0  0  0
 26 27  1  0  0  0
 27 28  2  0  0  0
 28 29  1  0  0  0
 29 30  1  0  0  0
 29 31  2  0  0  0
  7  8  2  0  0  0
  8  9  1  0  0  0
  9 10  1  0  0  0
 10 11  1  0  0  0
 11 12  1  0  0  0
 12 13  1  0  0  0
 13 14  1  0  0  0
 14 15  1  0  0  0
 15 16  1  0  0  0
 16 17  1  0  0  0
 10  2  2  0  0  0
 17 11  1  0  0  0
  8  3  1  0  0  0
 28 23  1  0  0  0
 21 22  1  0  0  0
 30 32  1  0  0  0
 30 33  1  0  0  0
M  END
>  <minimizedAffinity>
-2.83064

>  <minimizedRMSD>
1.95036

$$$$
ChemDiv-S021-0963 MolPort-010-942-327 PubChem-53183865 ZINC000097112020 ZINC97112020


 33 38  0  0  0  0  0  0  0  0999 V2000
   17.8624   -9.8999   13.3482 C   0  0  0  0  0  0  0  0  0  0  0  0
   18.9063  -10.5372   13.6549 O   0  0  0  0  0  0  0  0  0  0  0  0
   17.0603   -9.3128   14.3842 N   0  0  0  0  0  0  0  0  0  0  0  0
   15.6008   -9.3554   14.2684 C   0  0  0  0  0  0  0  0  0  0  0  0
   14.9916   -8.1196   14.9105 C   0  0  0  0  0  0  0  0  0  0  0  0
   15.4429   -8.0279   16.3335 C   0  0  0  0  0  0  0  0  0  0  0  0
   16.7532   -8.4337   16.6904 C   0  0  0  0  0  0  0  0  0  0  0  0
   17.7108   -8.9571   15.6542 C   0  0  0  0  0  0  0  0  0  0  0  0
   17.1693   -8.3437   17.9877 N   0  0  0  0  0  0  0  0  0  0  0  0
   16.3102   -7.8745   18.9246 C   0  0  0  0  0  0  0  0  0  0  0  0
   16.5462   -7.7161   20.2729 C   0  0  0  0  0  0  0  0  0  0  0  0
   15.3155   -7.2089   20.7121 C   0  0  0  0  0  0  0  0  0  0  0  0
   14.4348   -7.0845   19.6891 N   0  0  0  0  0  0  0  0  0  0  0  0
   15.0679   -7.4982   18.6091 N   0  0  0  0  0  0  0  0  0  0  0  0
   14.5866   -7.5539   17.3427 C   0  0  0  0  0  0  0  0  0  0  0  0
   13.4077   -7.1879   17.0847 O   0  0  0  0  0  0  0  0  0  0  0  0
   13.5095   -6.7525   19.7419 H   0  0  0  0  0  0  0  0  0  0  0  0
   15.3811  -10.6220    9.1643 C   0  0  0  0  0  0  0  0  0  0  0  0
   16.3952  -10.1332   10.0827 N   0  0  0  0  0  0  0  0  0  0  0  0
   16.4053  -10.3929   11.3846 N   0  0  0  0  0  0  0  0  0  0  0  0
   17.4951   -9.7914   11.9238 C   0  0  0  0  0  0  0  0  0  0  0  0
   18.1945   -9.1551   10.9103 C   0  0  0  0  0  0  0  0  0  0  0  0
   19.4022   -8.4598   10.8835 C   0  0  0  0  0  0  0  0  0  0  0  0
   19.8421   -7.9730    9.6388 C   0  0  0  0  0  0  0  0  0  0  0  0
   19.0849   -8.2023    8.4679 C   0  0  0  0  0  0  0  0  0  0  0  0
   17.8798   -8.9269    8.5240 C   0  0  0  0  0  0  0  0  0  0  0  0
   17.4699   -9.3896    9.7741 C   0  0  0  0  0  0  0  0  0  0  0  0
   14.9958   -6.8488   22.1042 C   0  0  0  0  0  0  0  0  0  0  0  0
   15.6644   -7.4655   23.1724 C   0  0  0  0  0  0  0  0  0  0  0  0
   15.3572   -7.1202   24.4919 C   0  0  0  0  0  0  0  0  0  0  0  0
   14.3796   -6.1563   24.7523 C   0  0  0  0  0  0  0  0  0  0  0  0
   13.7090   -5.5374   23.6938 C   0  0  0  0  0  0  0  0  0  0  0  0
   14.0162   -5.8826   22.3743 C   0  0  0  0  0  0  0  0  0  0  0  0
 18 19  1  0  0  0
 19 20  1  0  0  0
 20 21  2  0  0  0
 21  1  1  0  0  0
 21 22  1  0  0  0
  1  2  2  0  0  0
  1  3  1  0  0  0
  3  4  1  0  0  0
  4  5  1  0  0  0
  5  6  1  0  0  0
  6  7  2  0  0  0
  7  8  1  0  0  0
  7  9  1  0  0  0
  8  3  1  0  0  0
  9 10  2  0  0  0
 10 11  1  0  0  0
 11 12  2  0  0  0
 12 13  1  0  0  0
 12 28  1  0  0  0
 13 14  1  0  0  0
 14 15  1  0  0  0
 14 10  1  0  0  0
 15 16  2  0  0  0
 15  6  1  0  0  0
 28 29  2  0  0  0
 29 30  1  0  0  0
 30 31  2  0  0  0
 31 32  1  0  0  0
 32 33  2  0  0  0
 33 28  1  0  0  0
 22 23  2  0  0  0
 23 24  1  0  0  0
 24 25  2  0  0  0
 25 26  1  0  0  0
 26 27  2  0  0  0
 27 19  1  0  0  0
 27 22  1  0  0  0
 13 17  1  0  0  0
M  END
>  <minimizedAffinity>
-2.79096

>  <minimizedRMSD>
3.17403

$$$$
ChemDiv-D483-1800 MCULE-7164959046 MolPort-007-710-994 PubChem-20899120 ZINC000015859288 ZINC15859288


 34 37  0  0  0  0  0  0  0  0999 V2000
   17.5693   -9.4103   14.4367 C   0  0  0  0  0  0  0  0  0  0  0  0
   18.3598  -10.3440   13.8747 N   0  0  0  0  0  0  0  0  0  0  0  0
   17.7915  -10.6898   12.7276 N   0  0  0  0  0  0  0  0  0  0  0  0
   16.6622   -9.9627   12.6140 C   0  0  0  0  0  0  0  0  0  0  0  0
   16.4955   -9.1519   13.6720 N   0  0  0  0  0  0  0  0  0  0  0  0
   15.4251   -8.1993   13.9170 C   0  0  0  0  0  0  0  0  0  0  0  0
   17.9216   -8.6244   16.0087 S   0  0  0  0  0  0  0  0  0  0  0  0
   16.4489   -9.3273   16.8140 C   0  0  0  0  0  0  0  0  0  0  0  0
   15.8417   -8.5478   19.1393 N   0  0  0  0  0  0  0  0  0  0  0  0
   15.8173   -8.3320   17.7240 C   0  0  0  0  0  0  0  0  0  0  0  0
   15.2168   -7.3403   17.2319 O   0  0  0  0  0  0  0  0  0  0  0  0
   16.1328   -9.4340   19.4541 H   0  0  0  0  0  0  0  0  0  0  0  0
   16.4352   -6.7750   20.7900 C   0  0  0  0  0  0  0  0  0  0  0  0
   15.4789   -7.5850   20.1375 C   0  0  0  0  0  0  0  0  0  0  0  0
   14.1331   -7.4989   20.5115 C   0  0  0  0  0  0  0  0  0  0  0  0
   13.7217   -6.5874   21.4856 C   0  0  0  0  0  0  0  0  0  0  0  0
   12.2867   -6.4971   21.8595 C   0  0  0  0  0  0  0  0  0  0  0  0
   14.6576   -5.7593   22.1052 C   0  0  0  0  0  0  0  0  0  0  0  0
   16.0072   -5.8555   21.7629 C   0  0  0  0  0  0  0  0  0  0  0  0
   18.7985   -6.0759   21.0493 C   0  0  0  0  0  0  0  0  0  0  0  0
   17.7952   -6.9146   20.4925 O   0  0  0  0  0  0  0  0  0  0  0  0
   15.7268  -10.0482   11.4503 C   0  0  0  0  0  0  0  0  0  0  0  0
   16.4382   -9.7167   10.1694 C   0  0  0  0  0  0  0  0  0  0  0  0
   16.1145  -10.3689    8.9706 C   0  0  0  0  0  0  0  0  0  0  0  0
   15.0347  -11.3953    8.9092 C   0  0  0  0  0  0  0  0  0  0  0  0
   16.7875  -10.0627    7.8345 N   0  0  0  0  0  0  0  0  0  0  0  0
   17.7774   -9.1355    7.8260 C   0  0  0  0  0  0  0  0  0  0  0  0
   18.4406   -8.8555    6.6287 C   0  0  0  0  0  0  0  0  0  0  0  0
   19.4580   -7.9038    6.6146 C   0  0  0  0  0  0  0  0  0  0  0  0
   19.8038   -7.2424    7.7908 C   0  0  0  0  0  0  0  0  0  0  0  0
   19.1214   -7.5443    8.9706 C   0  0  0  0  0  0  0  0  0  0  0  0
   18.1226   -8.4776    8.9843 N   0  0  0  0  0  0  0  0  0  0  0  0
   17.4651   -8.7584   10.1520 C   0  0  0  0  0  0  0  0  0  0  0  0
   17.7769   -8.1590   11.2205 O   0  0  0  0  0  0  0  0  0  0  0  0
 20 21  1  0  0  0
 21 13  1  0  0  0
 13 14  2  0  0  0
 14  9  1  0  0  0
 14 15  1  0  0  0
  9 10  1  0  0  0
 10 11  2  0  0  0
 10  8  1  0  0  0
  8  7  1  0  0  0
  7  1  1  0  0  0
  1  2  2  0  0  0
  2  3  1  0  0  0
  3  4  2  0  0  0
  4 22  1  0  0  0
  4  5  1  0  0  0
 22 23  1  0  0  0
 23 24  2  0  0  0
 24 25  1  0  0  0
 24 26  1  0  0  0
 26 27  2  0  0  0
 27 28  1  0  0  0
 28 29  2  0  0  0
 29 30  1  0  0  0
 30 31  2  0  0  0
 31 32  1  0  0  0
 32 33  1  0  0  0
 32 27  1  0  0  0
 33 34  2  0  0  0
 33 23  1  0  0  0
  5  6  1  0  0  0
  5  1  1  0  0  0
 15 16  2  0  0  0
 16 17  1  0  0  0
 16 18  1  0  0  0
 18 19  2  0  0  0
 19 13  1  0  0  0
  9 12  1  0  0  0
M  END
>  <minimizedAffinity>
-2.58441

>  <minimizedRMSD>
2.75764

$$$$
ChemDiv-4606-1779 CSC046858174 MCULE-9814718342 MolPort-001-550-285 PubChem-1164340 ZINC000000917403 ZINC00917403


 38 41  0  0  0  0  0  0  0  0999 V2000
   14.8324   -7.6382   17.3627 C   0  0  0  0  0  0  0  0  0  0  0  0
   15.3944   -8.0910   16.1594 C   0  0  0  0  0  0  0  0  0  0  0  0
   16.4853   -8.9639   16.1558 C   0  0  0  0  0  0  0  0  0  0  0  0
   16.9991   -9.4375   17.3796 C   0  0  0  0  0  0  0  0  0  0  0  0
   16.4385   -8.9772   18.5806 C   0  0  0  0  0  0  0  0  0  0  0  0
   15.3655   -8.0762   18.5834 C   0  0  0  0  0  0  0  0  0  0  0  0
   17.0040   -9.3961   14.8917 N   0  0  0  0  0  0  0  0  0  0  0  0
   18.3916   -9.4726   14.5500 C   0  0  0  0  0  0  0  0  0  0  0  0
   19.2618   -8.8952   15.2545 O   0  0  0  0  0  0  0  0  0  0  0  0
   16.3531   -9.6619   14.2026 H   0  0  0  0  0  0  0  0  0  0  0  0
   18.8034  -10.1655   13.2968 C   0  0  0  0  0  0  0  0  0  0  0  0
   17.7046  -10.1700   12.3416 N   0  0  0  0  0  0  0  0  0  0  0  0
   16.4518  -10.6409   12.5595 C   0  0  0  0  0  0  0  0  0  0  0  0
   15.6329  -10.4510   11.4890 N   0  0  0  0  0  0  0  0  0  0  0  0
   16.4321   -9.8339   10.5965 C   0  0  0  0  0  0  0  0  0  0  0  0
   17.6721   -9.6591   11.1022 C   0  0  0  0  0  0  0  0  0  0  0  0
   18.6570   -9.0287   10.3512 C   0  0  0  0  0  0  0  0  0  0  0  0
   19.8188   -8.8630   10.8144 O   0  0  0  0  0  0  0  0  0  0  0  0
   18.3253   -8.5945    9.0920 N   0  0  0  0  0  0  0  0  0  0  0  0
   19.3321   -7.9264    8.2731 C   0  0  0  0  0  0  0  0  0  0  0  0
   17.0512   -8.7817    8.5931 C   0  0  0  0  0  0  0  0  0  0  0  0
   16.7629   -8.3735    7.4328 O   0  0  0  0  0  0  0  0  0  0  0  0
   16.0923   -9.4085    9.3531 N   0  0  0  0  0  0  0  0  0  0  0  0
   14.7408   -9.6144    8.8472 C   0  0  0  0  0  0  0  0  0  0  0  0
   14.7889   -7.6013   19.8098 N   0  0  0  0  0  0  0  0  0  0  0  0
   15.4696   -6.9330   20.8837 C   0  0  0  0  0  0  0  0  0  0  0  0
   16.7077   -6.7020   20.8143 O   0  0  0  0  0  0  0  0  0  0  0  0
   13.8228   -7.7498   19.9273 H   0  0  0  0  0  0  0  0  0  0  0  0
   14.7144   -6.5146   22.0778 C   0  0  0  0  0  0  0  0  0  0  0  0
   13.4208   -5.9875   21.9495 C   0  0  0  0  0  0  0  0  0  0  0  0
   12.7031   -5.5916   23.0821 C   0  0  0  0  0  0  0  0  0  0  0  0
   13.2736   -5.7197   24.3514 C   0  0  0  0  0  0  0  0  0  0  0  0
   14.5618   -6.2433   24.4888 C   0  0  0  0  0  0  0  0  0  0  0  0
   15.2796   -6.6396   23.3562 C   0  0  0  0  0  0  0  0  0  0  0  0
   12.4539   -7.1227   17.8233 C   0  0  0  0  0  0  0  0  0  0  0  0
   13.7479   -6.7533   17.3659 O   0  0  0  0  0  0  0  0  0  0  0  0
   18.0340  -10.3799   17.3903 O   0  0  0  0  0  0  0  0  0  0  0  0
   17.8161  -11.7678   17.1744 C   0  0  0  0  0  0  0  0  0  0  0  0
 35 36  1  0  0  0
 36  1  1  0  0  0
  1  2  2  0  0  0
  2  3  1  0  0  0
  3  7  1  0  0  0
  3  4  2  0  0  0
  7  8  1  0  0  0
  8  9  2  0  0  0
  8 11  1  0  0  0
 11 12  1  0  0  0
 12 13  1  0  0  0
 13 14  2  0  0  0
 14 15  1  0  0  0
 15 16  2  0  0  0
 16 17  1  0  0  0
 16 12  1  0  0  0
 17 18  2  0  0  0
 17 19  1  0  0  0
 19 20  1  0  0  0
 19 21  1  0  0  0
 21 22  2  0  0  0
 21 23  1  0  0  0
 23 24  1  0  0  0
 23 15  1  0  0  0
  4 37  1  0  0  0
  4  5  1  0  0  0
 37 38  1  0  0  0
  5  6  2  0  0  0
  6 25  1  0  0  0
  6  1  1  0  0  0
 25 26  1  0  0  0
 26 27  2  0  0  0
 26 29  1  0  0  0
 29 30  2  0  0  0
 30 31  1  0  0  0
 31 32  2  0  0  0
 32 33  1  0  0  0
 33 34  2  0  0  0
 34 29  1  0  0  0
  7 10  1  0  0  0
 25 28  1  0  0  0
M  END
>  <minimizedAffinity>
-2.46463

>  <minimizedRMSD>
2.91122

$$$$
ChemDiv-D483-1220 MCULE-8031637200 MolPort-007-710-892 PubChem-20899022 ZINC000015859181 ZINC15859181


 32 35  0  0  0  0  0  0  0  0999 V2000
   16.0852   -7.7916   14.1607 C   0  0  0  0  0  0  0  0  0  0  0  0
   16.8708   -8.8922   13.6257 N   0  0  0  0  0  0  0  0  0  0  0  0
   16.7916   -9.4597   12.4102 C   0  0  0  0  0  0  0  0  0  0  0  0
   17.7013  -10.4444   12.2693 N   0  0  0  0  0  0  0  0  0  0  0  0
   18.3762  -10.5130   13.4092 N   0  0  0  0  0  0  0  0  0  0  0  0
   17.8667   -9.5679   14.2223 C   0  0  0  0  0  0  0  0  0  0  0  0
   15.8214   -9.0596   11.3446 C   0  0  0  0  0  0  0  0  0  0  0  0
   16.4384   -9.2015    9.9820 C   0  0  0  0  0  0  0  0  0  0  0  0
   16.0493  -10.2317    9.1130 C   0  0  0  0  0  0  0  0  0  0  0  0
   14.9872  -11.2087    9.4885 C   0  0  0  0  0  0  0  0  0  0  0  0
   16.6402  -10.3472    7.8983 N   0  0  0  0  0  0  0  0  0  0  0  0
   17.6087   -9.4865    7.4973 C   0  0  0  0  0  0  0  0  0  0  0  0
   18.1875   -9.6492    6.2360 C   0  0  0  0  0  0  0  0  0  0  0  0
   19.1829   -8.7677    5.8189 C   0  0  0  0  0  0  0  0  0  0  0  0
   19.5893   -7.7360    6.6618 C   0  0  0  0  0  0  0  0  0  0  0  0
   20.6495   -6.7888    6.2302 C   0  0  0  0  0  0  0  0  0  0  0  0
   18.9919   -7.5994    7.9157 C   0  0  0  0  0  0  0  0  0  0  0  0
   18.0154   -8.4643    8.3244 N   0  0  0  0  0  0  0  0  0  0  0  0
   17.4417   -8.3141    9.5587 C   0  0  0  0  0  0  0  0  0  0  0  0
   17.8088   -7.3774   10.3239 O   0  0  0  0  0  0  0  0  0  0  0  0
   18.4571   -9.2626   15.8874 S   0  0  0  0  0  0  0  0  0  0  0  0
   16.9241   -9.8757   16.6543 C   0  0  0  0  0  0  0  0  0  0  0  0
   16.1229   -8.7461   17.2036 C   0  0  0  0  0  0  0  0  0  0  0  0
   15.8992   -7.7419   16.4773 O   0  0  0  0  0  0  0  0  0  0  0  0
   15.6111   -8.8258   18.5408 N   0  0  0  0  0  0  0  0  0  0  0  0
   15.7916   -9.6587   19.0337 H   0  0  0  0  0  0  0  0  0  0  0  0
   14.8637   -7.8174   19.2339 C   0  0  0  0  0  0  0  0  0  0  0  0
   13.7687   -7.1667   18.6442 C   0  0  0  0  0  0  0  0  0  0  0  0
   13.0664   -6.1848   19.3489 C   0  0  0  0  0  0  0  0  0  0  0  0
   13.4546   -5.8459   20.6479 C   0  0  0  0  0  0  0  0  0  0  0  0
   14.5446   -6.4887   21.2408 C   0  0  0  0  0  0  0  0  0  0  0  0
   15.2461   -7.4706   20.5346 C   0  0  0  0  0  0  0  0  0  0  0  0
  1  2  1  0  0  0
  2  3  1  0  0  0
  3  7  1  0  0  0
  3  4  2  0  0  0
  7  8  1  0  0  0
  8  9  2  0  0  0
  9 10  1  0  0  0
  9 11  1  0  0  0
 11 12  2  0  0  0
 12 13  1  0  0  0
 13 14  2  0  0  0
 14 15  1  0  0  0
 15 16  1  0  0  0
 15 17  2  0  0  0
 17 18  1  0  0  0
 18 19  1  0  0  0
 18 12  1  0  0  0
 19 20  2  0  0  0
 19  8  1  0  0  0
  4  5  1  0  0  0
  5  6  2  0  0  0
  6 21  1  0  0  0
  6  2  1  0  0  0
 21 22  1  0  0  0
 22 23  1  0  0  0
 23 24  2  0  0  0
 23 25  1  0  0  0
 25 27  1  0  0  0
 27 28  2  0  0  0
 28 29  1  0  0  0
 29 30  2  0  0  0
 30 31  1  0  0  0
 31 32  2  0  0  0
 32 27  1  0  0  0
 25 26  1  0  0  0
M  END
>  <minimizedAffinity>
-2.46410

>  <minimizedRMSD>
2.23555

$$$$
ChemDiv-D483-1285 MCULE-3155039547 MolPort-007-710-903 PubChem-20899033 ZINC000015859194 ZINC15859194


 34 37  0  0  0  0  0  0  0  0999 V2000
   15.9881  -10.5279   15.2185 C   0  0  0  0  0  0  0  0  0  0  0  0
   17.2945  -10.0449   14.7995 N   0  0  0  0  0  0  0  0  0  0  0  0
   17.9384  -10.2766   13.6426 C   0  0  0  0  0  0  0  0  0  0  0  0
   19.1259   -9.6391   13.6066 N   0  0  0  0  0  0  0  0  0  0  0  0
   19.2490   -8.9867   14.7547 N   0  0  0  0  0  0  0  0  0  0  0  0
   18.1339   -9.2375   15.4685 C   0  0  0  0  0  0  0  0  0  0  0  0
   17.4197  -11.1380   12.5354 C   0  0  0  0  0  0  0  0  0  0  0  0
   17.1794  -10.3232   11.2954 C   0  0  0  0  0  0  0  0  0  0  0  0
   15.8784  -10.0161   10.8707 C   0  0  0  0  0  0  0  0  0  0  0  0
   14.6812  -10.4479   11.6504 C   0  0  0  0  0  0  0  0  0  0  0  0
   15.6918   -9.3033    9.7330 N   0  0  0  0  0  0  0  0  0  0  0  0
   16.7395   -8.8732    8.9873 C   0  0  0  0  0  0  0  0  0  0  0  0
   16.4935   -8.1408    7.8230 C   0  0  0  0  0  0  0  0  0  0  0  0
   17.5660   -7.6958    7.0529 C   0  0  0  0  0  0  0  0  0  0  0  0
   18.8688   -7.9846    7.4516 C   0  0  0  0  0  0  0  0  0  0  0  0
   20.0214   -7.5177    6.6391 C   0  0  0  0  0  0  0  0  0  0  0  0
   19.0823   -8.7177    8.6198 C   0  0  0  0  0  0  0  0  0  0  0  0
   18.0296   -9.1543    9.3749 N   0  0  0  0  0  0  0  0  0  0  0  0
   18.2587   -9.8738   10.5172 C   0  0  0  0  0  0  0  0  0  0  0  0
   19.4407  -10.1379   10.8792 O   0  0  0  0  0  0  0  0  0  0  0  0
   17.8282   -8.5725   17.1056 S   0  0  0  0  0  0  0  0  0  0  0  0
   16.0872   -9.1063   17.1148 C   0  0  0  0  0  0  0  0  0  0  0  0
   15.2215   -8.0663   17.7385 C   0  0  0  0  0  0  0  0  0  0  0  0
   14.6435   -7.2262   17.0003 O   0  0  0  0  0  0  0  0  0  0  0  0
   15.0511   -8.0476   19.1622 N   0  0  0  0  0  0  0  0  0  0  0  0
   15.4753   -8.7795   19.6657 H   0  0  0  0  0  0  0  0  0  0  0  0
   14.3270   -7.0741   19.9320 C   0  0  0  0  0  0  0  0  0  0  0  0
   14.9021   -6.5471   21.1053 C   0  0  0  0  0  0  0  0  0  0  0  0
   16.2511   -7.0124   21.5498 C   0  0  0  0  0  0  0  0  0  0  0  0
   14.2030   -5.5837   21.8566 C   0  0  0  0  0  0  0  0  0  0  0  0
   14.8746   -4.8936   23.3270 Cl  0  0  0  0  0  0  0  0  0  0  0  0
   12.9415   -5.1534   21.4377 C   0  0  0  0  0  0  0  0  0  0  0  0
   12.3697   -5.6735   20.2771 C   0  0  0  0  0  0  0  0  0  0  0  0
   13.0604   -6.6268   19.5284 C   0  0  0  0  0  0  0  0  0  0  0  0
  1  2  1  0  0  0
  2  3  1  0  0  0
  3  7  1  0  0  0
  3  4  2  0  0  0
  7  8  1  0  0  0
  8  9  2  0  0  0
  9 10  1  0  0  0
  9 11  1  0  0  0
 11 12  2  0  0  0
 12 13  1  0  0  0
 13 14  2  0  0  0
 14 15  1  0  0  0
 15 16  1  0  0  0
 15 17  2  0  0  0
 17 18  1  0  0  0
 18 19  1  0  0  0
 18 12  1  0  0  0
 19 20  2  0  0  0
 19  8  1  0  0  0
  4  5  1  0  0  0
  5  6  2  0  0  0
  6 21  1  0  0  0
  6  2  1  0  0  0
 21 22  1  0  0  0
 22 23  1  0  0  0
 23 24  2  0  0  0
 23 25  1  0  0  0
 25 27  1  0  0  0
 27 28  2  0  0  0
 28 29  1  0  0  0
 28 30  1  0  0  0
 30 31  1  0  0  0
 30 32  2  0  0  0
 32 33  1  0  0  0
 33 34  2  0  0  0
 34 27  1  0  0  0
 25 26  1  0  0  0
M  END
>  <minimizedAffinity>
-2.45941

>  <minimizedRMSD>
3.11657

$$$$
ChemDiv-Y020-1329 MCULE-1795163413 MolPort-000-511-051 PubChem-4888845


 36 40  0  0  0  0  0  0  0  0999 V2000
   13.7269  -10.8564   15.7821 C   0  0  0  0  0  0  0  0  0  0  0  0
   14.7522  -10.1719   14.9435 C   0  0  0  0  0  0  0  0  0  0  0  0
   15.5647   -9.2033   15.4234 C   0  0  0  0  0  0  0  0  0  0  0  0
   16.5812   -8.5458   14.5011 C   0  0  0  0  0  0  0  0  0  0  0  0
   16.4250   -8.8841   13.0829 N   0  0  0  0  0  0  0  0  0  0  0  0
   15.6330   -9.8143   12.6459 C   0  0  0  0  0  0  0  0  0  0  0  0
   14.8026  -10.5246   13.5604 N   0  0  0  0  0  0  0  0  0  0  0  0
   14.2531  -11.2727   13.2326 H   0  0  0  0  0  0  0  0  0  0  0  0
   17.9921   -8.8106   14.9413 C   0  0  0  0  0  0  0  0  0  0  0  0
   18.7519   -9.8730   14.4148 C   0  0  0  0  0  0  0  0  0  0  0  0
   18.2310  -10.7064   13.4805 F   0  0  0  0  0  0  0  0  0  0  0  0
   20.0621  -10.0790   14.8556 C   0  0  0  0  0  0  0  0  0  0  0  0
   20.6214   -9.2336   15.8173 C   0  0  0  0  0  0  0  0  0  0  0  0
   19.8709   -8.1789   16.3415 C   0  0  0  0  0  0  0  0  0  0  0  0
   18.5604   -7.9688   15.9038 C   0  0  0  0  0  0  0  0  0  0  0  0
   15.5244   -8.7327   16.8333 C   0  0  0  0  0  0  0  0  0  0  0  0
   16.3672   -9.1887   17.6523 O   0  0  0  0  0  0  0  0  0  0  0  0
   14.5184   -7.8084   17.2737 N   0  0  0  0  0  0  0  0  0  0  0  0
   13.8976   -7.4741   16.5866 H   0  0  0  0  0  0  0  0  0  0  0  0
   14.3209   -7.3198   18.6072 C   0  0  0  0  0  0  0  0  0  0  0  0
   15.2013   -7.6375   19.6537 C   0  0  0  0  0  0  0  0  0  0  0  0
   14.9744   -7.1461   20.9422 C   0  0  0  0  0  0  0  0  0  0  0  0
   13.8655   -6.3336   21.1937 C   0  0  0  0  0  0  0  0  0  0  0  0
   12.9832   -6.0161   20.1576 C   0  0  0  0  0  0  0  0  0  0  0  0
   13.2112   -6.5096   18.8693 C   0  0  0  0  0  0  0  0  0  0  0  0
   15.5613  -10.1255   11.2510 N   0  0  0  0  0  0  0  0  0  0  0  0
   14.8643  -10.7576   10.9613 H   0  0  0  0  0  0  0  0  0  0  0  0
   16.4254   -9.5879   10.2451 C   0  0  0  0  0  0  0  0  0  0  0  0
   16.2171   -9.8013    8.9199 N   0  0  0  0  0  0  0  0  0  0  0  0
   17.2402   -9.1247    8.3706 C   0  0  0  0  0  0  0  0  0  0  0  0
   17.5408   -8.9825    7.0180 C   0  0  0  0  0  0  0  0  0  0  0  0
   18.6762   -8.2182    6.6852 C   0  0  0  0  0  0  0  0  0  0  0  0
   19.4668   -7.6262    7.6972 C   0  0  0  0  0  0  0  0  0  0  0  0
   19.1318   -7.7892    9.0551 C   0  0  0  0  0  0  0  0  0  0  0  0
   18.0025   -8.5505    9.3437 C   0  0  0  0  0  0  0  0  0  0  0  0
   17.4890   -8.8442   10.5070 O   0  0  0  0  0  0  0  0  0  0  0  0
  1  2  1  0  0  0
  2  3  2  0  0  0
  3  4  1  0  0  0
  3 16  1  0  0  0
  4  5  1  0  0  0
  4  9  1  0  0  0
  5  6  2  0  0  0
  6 26  1  0  0  0
  6  7  1  0  0  0
 26 28  1  0  0  0
 28 29  2  0  0  0
 29 30  1  0  0  0
 30 31  2  0  0  0
 31 32  1  0  0  0
 32 33  2  0  0  0
 33 34  1  0  0  0
 34 35  2  0  0  0
 35 36  1  0  0  0
 35 30  1  0  0  0
 36 28  1  0  0  0
  7  2  1  0  0  0
  9 10  2  0  0  0
 10 11  1  0  0  0
 10 12  1  0  0  0
 12 13  2  0  0  0
 13 14  1  0  0  0
 14 15  2  0  0  0
 15  9  1  0  0  0
 16 17  2  0  0  0
 16 18  1  0  0  0
 18 20  1  0  0  0
 20 21  2  0  0  0
 21 22  1  0  0  0
 22 23  2  0  0  0
 23 24  1  0  0  0
 24 25  2  0  0  0
 25 20  1  0  0  0
 26 27  1  0  0  0
  7  8  1  0  0  0
 18 19  1  0  0  0
M  END
>  <minimizedAffinity>
-2.35266

>  <minimizedRMSD>
1.11508

$$$$
ChemDiv-D692-0614 MCULE-5858609054 MolPort-009-193-467 PubChem-51342305


 36 41  0  0  0  0  0  0  0  0999 V2000
   16.2647  -10.2019   13.3128 S   0  0  0  0  0  0  0  0  0  0  0  0
   17.4131   -9.8495   11.9796 C   0  0  0  0  0  0  0  0  0  0  0  0
   18.7406   -9.7234   12.1933 N   0  0  0  0  0  0  0  0  0  0  0  0
   19.2917   -9.3130   11.0586 N   0  0  0  0  0  0  0  0  0  0  0  0
   18.2850   -9.1925   10.1742 C   0  0  0  0  0  0  0  0  0  0  0  0
   17.0977   -9.5370   10.7012 N   0  0  0  0  0  0  0  0  0  0  0  0
   15.9338   -9.4535    9.9854 C   0  0  0  0  0  0  0  0  0  0  0  0
   15.9940   -8.9662    8.7112 N   0  0  0  0  0  0  0  0  0  0  0  0
   17.1770   -8.5905    8.1449 C   0  0  0  0  0  0  0  0  0  0  0  0
   17.2063   -8.0957    6.8383 C   0  0  0  0  0  0  0  0  0  0  0  0
   18.4236   -7.7169    6.2610 C   0  0  0  0  0  0  0  0  0  0  0  0
   19.6149   -7.8308    6.9875 C   0  0  0  0  0  0  0  0  0  0  0  0
   19.5969   -8.3250    8.2959 C   0  0  0  0  0  0  0  0  0  0  0  0
   18.3816   -8.7081    8.8735 C   0  0  0  0  0  0  0  0  0  0  0  0
   14.6375   -9.9352   10.4867 C   0  0  0  0  0  0  0  0  0  0  0  0
   13.4523   -9.8824    9.7844 C   0  0  0  0  0  0  0  0  0  0  0  0
   12.5226  -10.4902   10.6096 C   0  0  0  0  0  0  0  0  0  0  0  0
   13.2031  -10.8820   11.7491 C   0  0  0  0  0  0  0  0  0  0  0  0
   14.4631  -10.5385   11.6339 O   0  0  0  0  0  0  0  0  0  0  0  0
   15.9667   -8.4419   13.6682 C   0  0  0  0  0  0  0  0  0  0  0  0
   16.0489   -9.0639   16.1138 N   0  0  0  0  0  0  0  0  0  0  0  0
   16.3392   -8.1227   15.0738 C   0  0  0  0  0  0  0  0  0  0  0  0
   16.9318   -7.0407   15.3268 O   0  0  0  0  0  0  0  0  0  0  0  0
   15.6192   -9.9100   15.8516 H   0  0  0  0  0  0  0  0  0  0  0  0
   17.7243   -8.2803   17.7484 C   0  0  0  0  0  0  0  0  0  0  0  0
   16.3394   -8.8692   17.5329 C   0  0  0  0  0  0  0  0  0  0  0  0
   15.2759   -8.0641   18.2101 C   0  0  0  0  0  0  0  0  0  0  0  0
   14.2493   -7.4705   17.5438 N   0  0  0  0  0  0  0  0  0  0  0  0
   13.5633   -6.8836   18.5339 C   0  0  0  0  0  0  0  0  0  0  0  0
   12.4003   -6.1248   18.4290 C   0  0  0  0  0  0  0  0  0  0  0  0
   11.8571   -5.6070   19.6194 C   0  0  0  0  0  0  0  0  0  0  0  0
   12.4814   -5.8579   20.8621 C   0  0  0  0  0  0  0  0  0  0  0  0
   13.6566   -6.6296   20.9288 C   0  0  0  0  0  0  0  0  0  0  0  0
   14.1649   -7.1255   19.7308 C   0  0  0  0  0  0  0  0  0  0  0  0
   15.2607   -7.8770   19.5558 N   0  0  0  0  0  0  0  0  0  0  0  0
   15.8946   -8.2095   20.2317 H   0  0  0  0  0  0  0  0  0  0  0  0
 26 25  1  0  0  0
 26 21  1  0  0  0
 26 27  1  0  0  0
 21 22  1  0  0  0
 22 23  2  0  0  0
 22 20  1  0  0  0
 20  1  1  0  0  0
  1  2  1  0  0  0
  2  3  2  0  0  0
  3  4  1  0  0  0
  4  5  2  0  0  0
  5  6  1  0  0  0
  6  7  1  0  0  0
  6  2  1  0  0  0
  7  8  2  0  0  0
  7 15  1  0  0  0
  8  9  1  0  0  0
  9 10  2  0  0  0
 10 11  1  0  0  0
 11 12  2  0  0  0
 12 13  1  0  0  0
 13 14  2  0  0  0
 14  9  1  0  0  0
 14  5  1  0  0  0
 15 16  2  0  0  0
 16 17  1  0  0  0
 17 18  2  0  0  0
 18 19  1  0  0  0
 19 15  1  0  0  0
 27 28  2  0  0  0
 28 29  1  0  0  0
 29 30  2  0  0  0
 30 31  1  0  0  0
 31 32  2  0  0  0
 32 33  1  0  0  0
 33 34  2  0  0  0
 34 35  1  0  0  0
 34 29  1  0  0  0
 35 27  1  0  0  0
 21 24  1  0  0  0
 35 36  1  0  0  0
M  END
>  <minimizedAffinity>
-1.96821

>  <minimizedRMSD>
1.90535

$$$$
ChemDiv-3136-2477 MCULE-5753444389 MolPort-002-595-036 PubChem-3726785 ZINC000006079512 ZINC06079512


 32 34  0  0  0  0  0  0  0  0999 V2000
   16.7989   -9.3707   13.4983 C   0  0  0  0  0  0  0  0  0  0  0  0
   15.7346   -8.8270   13.0999 O   0  0  0  0  0  0  0  0  0  0  0  0
   17.1293   -9.4298   14.8920 N   0  0  0  0  0  0  0  0  0  0  0  0
   17.9718   -9.8819   15.1265 H   0  0  0  0  0  0  0  0  0  0  0  0
   16.3613   -8.8993   15.9800 C   0  0  0  0  0  0  0  0  0  0  0  0
   15.2112   -8.1227   15.7691 C   0  0  0  0  0  0  0  0  0  0  0  0
   14.4903   -7.6189   16.8551 C   0  0  0  0  0  0  0  0  0  0  0  0
   14.9124   -7.8874   18.1611 C   0  0  0  0  0  0  0  0  0  0  0  0
   16.0588   -8.6598   18.3762 C   0  0  0  0  0  0  0  0  0  0  0  0
   16.7791   -9.1629   17.2891 C   0  0  0  0  0  0  0  0  0  0  0  0
   14.0087   -7.2439   19.5200 S   0  0  0  0  0  0  0  0  0  0  0  0
   13.0983   -8.3116   20.0571 O   0  0  0  0  0  0  0  0  0  0  0  0
   14.9461   -6.8089   20.6122 O   0  0  0  0  0  0  0  0  0  0  0  0
   13.0638   -5.8869   19.0060 N   0  0  0  0  0  0  0  0  0  0  0  0
   12.0612   -5.2958   19.8333 C   0  0  0  0  0  0  0  0  0  0  0  0
   11.2888   -4.1303   19.3314 C   0  0  0  0  0  0  0  0  0  0  0  0
   11.8251   -5.7511   20.9837 O   0  0  0  0  0  0  0  0  0  0  0  0
   13.2235   -5.5093   18.1109 H   0  0  0  0  0  0  0  0  0  0  0  0
   17.7528   -9.9283   12.4990 C   0  0  0  0  0  0  0  0  0  0  0  0
   15.8464   -9.3148    6.7903 C   0  0  0  0  0  0  0  0  0  0  0  0
   16.8629   -9.0924    7.8108 N   0  0  0  0  0  0  0  0  0  0  0  0
   16.6821   -9.5583    9.0731 C   0  0  0  0  0  0  0  0  0  0  0  0
   17.5984   -9.3699   10.0470 C   0  0  0  0  0  0  0  0  0  0  0  0
   17.1440   -9.9322   11.1765 N   0  0  0  0  0  0  0  0  0  0  0  0
   15.9335  -10.4480   10.8488 C   0  0  0  0  0  0  0  0  0  0  0  0
   15.6166  -10.2372    9.5419 N   0  0  0  0  0  0  0  0  0  0  0  0
   18.7771   -8.6828    9.7821 C   0  0  0  0  0  0  0  0  0  0  0  0
   19.6425   -8.5095   10.6837 O   0  0  0  0  0  0  0  0  0  0  0  0
   18.9703   -8.2049    8.5100 N   0  0  0  0  0  0  0  0  0  0  0  0
   20.1948   -7.4760    8.1934 C   0  0  0  0  0  0  0  0  0  0  0  0
   18.0206   -8.4071    7.5278 C   0  0  0  0  0  0  0  0  0  0  0  0
   18.2148   -7.9595    6.3623 O   0  0  0  0  0  0  0  0  0  0  0  0
 20 21  1  0  0  0
 21 22  1  0  0  0
 22 23  2  0  0  0
 23 24  1  0  0  0
 23 27  1  0  0  0
 24 19  1  0  0  0
 24 25  1  0  0  0
 19  1  1  0  0  0
  1  2  2  0  0  0
  1  3  1  0  0  0
  3  5  1  0  0  0
  5  6  2  0  0  0
  6  7  1  0  0  0
  7  8  2  0  0  0
  8  9  1  0  0  0
  8 11  1  0  0  0
  9 10  2  0  0  0
 10  5  1  0  0  0
 11 12  2  0  0  0
 11 13  2  0  0  0
 11 14  1  0  0  0
 14 15  1  0  0  0
 15 16  1  0  0  0
 15 17  2  0  0  0
 25 26  2  0  0  0
 26 22  1  0  0  0
 27 28  2  0  0  0
 27 29  1  0  0  0
 29 30  1  0  0  0
 29 31  1  0  0  0
 31 32  2  0  0  0
 31 21  1  0  0  0
  3  4  1  0  0  0
 14 18  1  0  0  0
M  END
>  <minimizedAffinity>
-1.86934

>  <minimizedRMSD>
3.10166

$$$$
ChemDiv-E514-0069 MCULE-4795204599 MolPort-007-736-491 PubChem-22552445 ZINC000009442499


 32 35  0  0  0  0  0  0  0  0999 V2000
   18.1468  -10.7442   12.6865 C   0  0  0  0  0  0  0  0  0  0  0  0
   18.8901  -11.8502   13.2012 N   0  0  0  0  0  0  0  0  0  0  0  0
   16.9281  -10.6055   12.9812 O   0  0  0  0  0  0  0  0  0  0  0  0
   19.8180  -11.9770   12.8977 H   0  0  0  0  0  0  0  0  0  0  0  0
   18.8406   -9.7628   11.7931 C   0  0  0  0  0  0  0  0  0  0  0  0
   17.7912   -8.3380   11.3466 S   0  0  0  0  0  0  0  0  0  0  0  0
   17.8153   -9.0329    7.3700 N   0  0  0  0  0  0  0  0  0  0  0  0
   16.8883  -10.0002    7.2006 C   0  0  0  0  0  0  0  0  0  0  0  0
   16.2412  -10.4522    8.3104 N   0  0  0  0  0  0  0  0  0  0  0  0
   16.5180   -9.9535    9.5242 N   0  0  0  0  0  0  0  0  0  0  0  0
   17.4554   -8.9778    9.7058 C   0  0  0  0  0  0  0  0  0  0  0  0
   18.1211   -8.5050    8.5781 C   0  0  0  0  0  0  0  0  0  0  0  0
   19.1225   -7.5085    8.4989 C   0  0  0  0  0  0  0  0  0  0  0  0
   19.3590   -7.5171    7.1323 C   0  0  0  0  0  0  0  0  0  0  0  0
   20.1312   -6.8895    6.2962 O   0  0  0  0  0  0  0  0  0  0  0  0
   19.8489   -7.3928    5.0933 C   0  0  0  0  0  0  0  0  0  0  0  0
   18.8473   -8.3910    5.1641 C   0  0  0  0  0  0  0  0  0  0  0  0
   18.6033   -8.3925    6.5124 C   0  0  0  0  0  0  0  0  0  0  0  0
   18.3326  -12.7982   14.1562 C   0  0  0  0  0  0  0  0  0  0  0  0
   18.6951  -12.3963   15.5811 C   0  0  0  0  0  0  0  0  0  0  0  0
   17.8117  -11.3055   16.0880 C   0  0  0  0  0  0  0  0  0  0  0  0
   18.3555  -10.0465   16.3632 C   0  0  0  0  0  0  0  0  0  0  0  0
   17.5351   -9.0164   16.8319 C   0  0  0  0  0  0  0  0  0  0  0  0
   16.1693   -9.2433   17.0332 C   0  0  0  0  0  0  0  0  0  0  0  0
   15.6262  -10.5047   16.7645 C   0  0  0  0  0  0  0  0  0  0  0  0
   16.4458  -11.5352   16.2955 C   0  0  0  0  0  0  0  0  0  0  0  0
   15.1394   -7.9440   17.6048 S   0  0  0  0  0  0  0  0  0  0  0  0
   15.8116   -7.2577   19.0409 N   0  0  0  0  0  0  0  0  0  0  0  0
   15.0307   -6.8849   16.5447 O   0  0  0  0  0  0  0  0  0  0  0  0
   13.7714   -8.4812   17.9188 O   0  0  0  0  0  0  0  0  0  0  0  0
   16.7412   -6.8897   18.8390 H   0  0  0  0  0  0  0  0  0  0  0  0
   15.8796   -7.9764   19.7616 H   0  0  0  0  0  0  0  0  0  0  0  0
  7  8  1  0  0  0
  8  9  2  0  0  0
  9 10  1  0  0  0
 10 11  2  0  0  0
 11  6  1  0  0  0
  6  5  1  0  0  0
  5  1  1  0  0  0
  1  2  1  0  0  0
  2 19  1  0  0  0
 19 20  1  0  0  0
 20 21  1  0  0  0
 21 22  2  0  0  0
 22 23  1  0  0  0
 23 24  2  0  0  0
 24 25  1  0  0  0
 25 26  2  0  0  0
 24 27  1  0  0  0
 27 28  1  0  0  0
 27 29  2  0  0  0
 27 30  2  0  0  0
  1  3  2  0  0  0
 11 12  1  0  0  0
 12 13  2  0  0  0
 13 14  1  0  0  0
 14 15  1  0  0  0
 15 16  1  0  0  0
 16 17  2  0  0  0
 17 18  1  0  0  0
 12  7  1  0  0  0
 18 14  2  0  0  0
 18  7  1  0  0  0
 26 21  1  0  0  0
  2  4  1  0  0  0
 28 31  1  0  0  0
 28 32  1  0  0  0
M  END
>  <minimizedAffinity>
-1.85534

>  <minimizedRMSD>
0.68842

$$$$
ChemDiv-S021-2273 MolPort-035-696-184 ZINC000097161325


 36 41  0  0  0  0  0  0  0  0999 V2000
   16.7594  -10.3278   14.1227 C   0  0  0  0  0  0  0  0  0  0  0  0
   17.6409  -11.1017   14.5852 O   0  0  0  0  0  0  0  0  0  0  0  0
   16.3564   -9.1675   14.8654 N   0  0  0  0  0  0  0  0  0  0  0  0
   15.4693   -8.1725   14.2750 C   0  0  0  0  0  0  0  0  0  0  0  0
   14.3219   -7.8643   15.2312 C   0  0  0  0  0  0  0  0  0  0  0  0
   14.7742   -7.7379   16.6645 C   0  0  0  0  0  0  0  0  0  0  0  0
   16.0382   -8.2299   17.0970 C   0  0  0  0  0  0  0  0  0  0  0  0
   17.0102   -8.8368   16.1276 C   0  0  0  0  0  0  0  0  0  0  0  0
   16.4052   -8.1230   18.4075 N   0  0  0  0  0  0  0  0  0  0  0  0
   15.5459   -7.5614   19.2906 C   0  0  0  0  0  0  0  0  0  0  0  0
   15.7386   -7.3725   20.6420 C   0  0  0  0  0  0  0  0  0  0  0  0
   14.5317   -6.7632   21.0113 C   0  0  0  0  0  0  0  0  0  0  0  0
   13.7046   -6.6125   19.9478 N   0  0  0  0  0  0  0  0  0  0  0  0
   14.3495   -7.1074   18.9097 N   0  0  0  0  0  0  0  0  0  0  0  0
   13.9165   -7.1720   17.6264 C   0  0  0  0  0  0  0  0  0  0  0  0
   12.7764   -6.7346   17.3109 O   0  0  0  0  0  0  0  0  0  0  0  0
   12.8044   -6.2139   19.9501 H   0  0  0  0  0  0  0  0  0  0  0  0
   14.1840   -6.3294   22.3756 C   0  0  0  0  0  0  0  0  0  0  0  0
   13.1126   -5.4487   22.5830 C   0  0  0  0  0  0  0  0  0  0  0  0
   12.7799   -5.0324   23.8753 C   0  0  0  0  0  0  0  0  0  0  0  0
   13.5167   -5.4934   24.9692 C   0  0  0  0  0  0  0  0  0  0  0  0
   14.5863   -6.3710   24.7711 C   0  0  0  0  0  0  0  0  0  0  0  0
   14.9189   -6.7877   23.4789 C   0  0  0  0  0  0  0  0  0  0  0  0
   16.1354  -10.6447   12.7989 C   0  0  0  0  0  0  0  0  0  0  0  0
   17.1231  -11.3539   11.8830 C   0  0  0  0  0  0  0  0  0  0  0  0
   18.3959   -7.1102    5.7607 Cl  0  0  0  0  0  0  0  0  0  0  0  0
   18.5034   -7.7895    7.3699 C   0  0  0  0  0  0  0  0  0  0  0  0
   19.4283   -7.2572    8.2961 C   0  0  0  0  0  0  0  0  0  0  0  0
   19.5276   -7.7894    9.5952 C   0  0  0  0  0  0  0  0  0  0  0  0
   18.6853   -8.8500    9.9174 C   0  0  0  0  0  0  0  0  0  0  0  0
   18.5997   -9.5008   11.0859 N   0  0  0  0  0  0  0  0  0  0  0  0
   17.6294  -10.4187   10.8367 C   0  0  0  0  0  0  0  0  0  0  0  0
   17.1004  -10.3639    9.5863 N   0  0  0  0  0  0  0  0  0  0  0  0
   17.7937   -9.3634    9.0257 C   0  0  0  0  0  0  0  0  0  0  0  0
   17.6659   -8.8609    7.7334 C   0  0  0  0  0  0  0  0  0  0  0  0
   19.1102   -9.3516   11.9144 H   0  0  0  0  0  0  0  0  0  0  0  0
 26 27  1  0  0  0
 27 28  2  0  0  0
 28 29  1  0  0  0
 29 30  2  0  0  0
 30 31  1  0  0  0
 31 32  1  0  0  0
 32 25  1  0  0  0
 25 24  1  0  0  0
 24  1  1  0  0  0
  1  2  2  0  0  0
  1  3  1  0  0  0
  3  4  1  0  0  0
  4  5  1  0  0  0
  5  6  1  0  0  0
  6  7  2  0  0  0
  7  8  1  0  0  0
  7  9  1  0  0  0
  9 10  2  0  0  0
 10 11  1  0  0  0
 11 12  2  0  0  0
 12 13  1  0  0  0
 13 14  1  0  0  0
 14 15  1  0  0  0
 15 16  2  0  0  0
 12 18  1  0  0  0
 18 19  2  0  0  0
 19 20  1  0  0  0
 20 21  2  0  0  0
 21 22  1  0  0  0
 22 23  2  0  0  0
 32 33  2  0  0  0
 33 34  1  0  0  0
 34 35  2  0  0  0
 35 27  1  0  0  0
 34 30  1  0  0  0
  8  3  1  0  0  0
 14 10  1  0  0  0
 23 18  1  0  0  0
 15  6  1  0  0  0
 31 36  1  0  0  0
 13 17  1  0  0  0
M  END
>  <minimizedAffinity>
-1.80646

>  <minimizedRMSD>
3.50951

$$$$
ChemDiv-C776-3318 MCULE-8220522561 MolPort-007-667-800 PubChem-20882960


 34 37  0  0  0  0  0  0  0  0999 V2000
   17.4118  -10.8254   13.7131 N   0  0  0  0  0  0  0  0  0  0  0  0
   17.1720  -10.4613   12.3492 C   0  0  0  0  0  0  0  0  0  0  0  0
   17.9987   -9.7364   11.7317 O   0  0  0  0  0  0  0  0  0  0  0  0
   16.6821  -11.2309   14.2351 H   0  0  0  0  0  0  0  0  0  0  0  0
   15.9782  -10.9923   11.6165 C   0  0  0  0  0  0  0  0  0  0  0  0
   14.7436  -10.1370   11.9496 C   0  0  0  0  0  0  0  0  0  0  0  0
   13.8443   -9.9054   10.7372 C   0  0  0  0  0  0  0  0  0  0  0  0
   14.6453   -9.2128    9.6377 C   0  0  0  0  0  0  0  0  0  0  0  0
   15.9305   -9.8802    9.4148 N   0  0  0  0  0  0  0  0  0  0  0  0
   16.2405  -11.1305   10.1089 C   0  0  0  0  0  0  0  0  0  0  0  0
   16.9061   -9.2889    8.5479 C   0  0  0  0  0  0  0  0  0  0  0  0
   16.9347   -9.5297    7.2088 N   0  0  0  0  0  0  0  0  0  0  0  0
   18.0002   -8.8202    6.8128 C   0  0  0  0  0  0  0  0  0  0  0  0
   18.5070   -8.6977    5.5213 C   0  0  0  0  0  0  0  0  0  0  0  0
   19.6478   -7.8909    5.3470 C   0  0  0  0  0  0  0  0  0  0  0  0
   20.2425   -7.2410    6.4524 C   0  0  0  0  0  0  0  0  0  0  0  0
   19.7036   -7.3891    7.7447 C   0  0  0  0  0  0  0  0  0  0  0  0
   18.5731   -8.1931    7.8786 C   0  0  0  0  0  0  0  0  0  0  0  0
   17.8975   -8.4746    9.0027 N   0  0  0  0  0  0  0  0  0  0  0  0
   18.0737   -8.1699    9.9221 H   0  0  0  0  0  0  0  0  0  0  0  0
   18.7025  -10.6134   14.3496 C   0  0  0  0  0  0  0  0  0  0  0  0
   18.8170   -9.1752   14.8468 C   0  0  0  0  0  0  0  0  0  0  0  0
   15.4402   -8.2219   17.3212 C   0  0  0  0  0  0  0  0  0  0  0  0
   15.5266   -7.7144   16.0208 C   0  0  0  0  0  0  0  0  0  0  0  0
   16.6379   -8.0070   15.2259 C   0  0  0  0  0  0  0  0  0  0  0  0
   17.6691   -8.8075   15.7292 C   0  0  0  0  0  0  0  0  0  0  0  0
   17.5829   -9.3186   17.0294 C   0  0  0  0  0  0  0  0  0  0  0  0
   16.4708   -9.0239   17.8250 C   0  0  0  0  0  0  0  0  0  0  0  0
   13.4936   -6.2673   18.0108 N   0  0  0  0  0  0  0  0  0  0  0  0
   14.0306   -7.8832   18.3060 S   0  0  0  0  0  0  0  0  0  0  0  0
   14.3857   -8.0426   19.7583 O   0  0  0  0  0  0  0  0  0  0  0  0
   12.9234   -8.8384   17.9555 O   0  0  0  0  0  0  0  0  0  0  0  0
   12.6733   -6.0715   18.5844 H   0  0  0  0  0  0  0  0  0  0  0  0
   13.2519   -6.1641   17.0252 H   0  0  0  0  0  0  0  0  0  0  0  0
 29 30  1  0  0  0
 30 31  2  0  0  0
 30 32  2  0  0  0
 30 23  1  0  0  0
 23 24  2  0  0  0
 24 25  1  0  0  0
 25 26  2  0  0  0
 26 22  1  0  0  0
 26 27  1  0  0  0
 22 21  1  0  0  0
 21  1  1  0  0  0
  1  2  1  0  0  0
  2  3  2  0  0  0
  5  2  1  0  0  0
  5  6  1  0  0  0
  6  7  1  0  0  0
  7  8  1  0  0  0
  8  9  1  0  0  0
  9 10  1  0  0  0
  9 11  1  0  0  0
 10  5  1  0  0  0
 11 12  2  0  0  0
 12 13  1  0  0  0
 13 14  2  0  0  0
 14 15  1  0  0  0
 15 16  2  0  0  0
 16 17  1  0  0  0
 17 18  2  0  0  0
 18 19  1  0  0  0
 18 13  1  0  0  0
 19 11  1  0  0  0
 27 28  2  0  0  0
 28 23  1  0  0  0
 29 33  1  0  0  0
 29 34  1  0  0  0
  1  4  1  0  0  0
 19 20  1  0  0  0
M  END
>  <minimizedAffinity>
-1.78958

>  <minimizedRMSD>
2.52753

$$$$
ChemDiv-L466-0571 MCULE-1085718498 MolPort-010-752-094 PubChem-53035884


 30 33  0  0  0  0  0  0  0  0999 V2000
   15.4851   -8.7069   15.0603 C   0  0  0  0  0  0  0  0  0  0  0  0
   15.2304   -9.9034   14.3848 C   0  0  0  0  0  0  0  0  0  0  0  0
   15.5830  -10.0431   13.0395 C   0  0  0  0  0  0  0  0  0  0  0  0
   16.1939   -8.9843   12.3487 C   0  0  0  0  0  0  0  0  0  0  0  0
   16.4360   -7.7806   13.0258 C   0  0  0  0  0  0  0  0  0  0  0  0
   16.0838   -7.6412   14.3702 C   0  0  0  0  0  0  0  0  0  0  0  0
   16.5913   -9.1304   10.9333 C   0  0  0  0  0  0  0  0  0  0  0  0
   15.9805  -10.0862   10.1057 C   0  0  0  0  0  0  0  0  0  0  0  0
   16.3677  -10.2068    8.8083 N   0  0  0  0  0  0  0  0  0  0  0  0
   17.3425   -9.4139    8.2930 C   0  0  0  0  0  0  0  0  0  0  0  0
   17.7332   -9.5425    6.9571 C   0  0  0  0  0  0  0  0  0  0  0  0
   18.7390   -8.7161    6.4438 C   0  0  0  0  0  0  0  0  0  0  0  0
   19.3535   -7.7629    7.2642 C   0  0  0  0  0  0  0  0  0  0  0  0
   18.9658   -7.6312    8.6022 C   0  0  0  0  0  0  0  0  0  0  0  0
   17.9619   -8.4546    9.1187 C   0  0  0  0  0  0  0  0  0  0  0  0
   17.5710   -8.3379   10.4135 N   0  0  0  0  0  0  0  0  0  0  0  0
   15.1500   -8.6103   16.4171 O   0  0  0  0  0  0  0  0  0  0  0  0
   15.3663   -8.2172   18.7750 C   0  0  0  0  0  0  0  0  0  0  0  0
   16.0628   -8.1872   17.4288 C   0  0  0  0  0  0  0  0  0  0  0  0
   17.2544   -9.0880   17.4579 C   0  0  0  0  0  0  0  0  0  0  0  0
   18.4103   -8.5865   17.4780 O   0  0  0  0  0  0  0  0  0  0  0  0
   17.0791  -10.5062   17.3983 N   0  0  0  0  0  0  0  0  0  0  0  0
   16.1973  -10.8860   17.6161 H   0  0  0  0  0  0  0  0  0  0  0  0
   18.1596  -11.4069   17.0266 C   0  0  0  0  0  0  0  0  0  0  0  0
   18.5161  -11.1968   15.5936 C   0  0  0  0  0  0  0  0  0  0  0  0
   19.1955  -10.1011   15.0958 C   0  0  0  0  0  0  0  0  0  0  0  0
   19.2798  -10.3151   13.7282 C   0  0  0  0  0  0  0  0  0  0  0  0
   18.6434  -11.5215   13.5102 C   0  0  0  0  0  0  0  0  0  0  0  0
   18.4768  -12.1714   12.1844 C   0  0  0  0  0  0  0  0  0  0  0  0
   18.1963  -12.0254   14.6322 O   0  0  0  0  0  0  0  0  0  0  0  0
 19 18  1  0  0  0
 19 17  1  0  0  0
 19 20  1  0  0  0
 17  1  1  0  0  0
  1  2  2  0  0  0
  2  3  1  0  0  0
  3  4  2  0  0  0
  4  5  1  0  0  0
  4  7  1  0  0  0
  5  6  2  0  0  0
  6  1  1  0  0  0
  7  8  2  0  0  0
  8  9  1  0  0  0
  9 10  2  0  0  0
 10 11  1  0  0  0
 11 12  2  0  0  0
 12 13  1  0  0  0
 13 14  2  0  0  0
 14 15  1  0  0  0
 15 16  2  0  0  0
 15 10  1  0  0  0
 16  7  1  0  0  0
 20 21  2  0  0  0
 20 22  1  0  0  0
 22 24  1  0  0  0
 24 25  1  0  0  0
 25 26  2  0  0  0
 26 27  1  0  0  0
 27 28  2  0  0  0
 28 29  1  0  0  0
 28 30  1  0  0  0
 30 25  1  0  0  0
 22 23  1  0  0  0
M  END
>  <minimizedAffinity>
-1.78292

>  <minimizedRMSD>
1.47425

$$$$
ChemDiv-4606-1789 MCULE-7275691546 MolPort-001-550-286 PubChem-2914614 ZINC000006199021


 34 37  0  0  0  0  0  0  0  0999 V2000
   16.8539   -9.9809   12.9371 C   0  0  0  0  0  0  0  0  0  0  0  0
   15.6456   -9.7163   12.7001 O   0  0  0  0  0  0  0  0  0  0  0  0
   17.4254   -9.7574   14.2326 N   0  0  0  0  0  0  0  0  0  0  0  0
   18.3747   -9.9940   14.3422 H   0  0  0  0  0  0  0  0  0  0  0  0
   16.7596   -9.2255   15.3854 C   0  0  0  0  0  0  0  0  0  0  0  0
   15.8891   -8.1282   15.3012 C   0  0  0  0  0  0  0  0  0  0  0  0
   15.2620   -7.6346   16.4483 C   0  0  0  0  0  0  0  0  0  0  0  0
   15.5015   -8.2322   17.6896 C   0  0  0  0  0  0  0  0  0  0  0  0
   16.3662   -9.3276   17.7781 C   0  0  0  0  0  0  0  0  0  0  0  0
   16.9924   -9.8209   16.6298 C   0  0  0  0  0  0  0  0  0  0  0  0
   14.7182   -7.6074   19.1298 S   0  0  0  0  0  0  0  0  0  0  0  0
   14.9483   -8.5599   20.2686 O   0  0  0  0  0  0  0  0  0  0  0  0
   15.2852   -6.2621   19.4883 O   0  0  0  0  0  0  0  0  0  0  0  0
   13.0169   -7.4474   18.8528 N   0  0  0  0  0  0  0  0  0  0  0  0
   12.5379   -8.1767   18.3970 H   0  0  0  0  0  0  0  0  0  0  0  0
   12.2863   -6.2925   19.2639 C   0  0  0  0  0  0  0  0  0  0  0  0
   11.6584   -5.4559   18.4143 N   0  0  0  0  0  0  0  0  0  0  0  0
   11.0326   -4.4452   19.0762 C   0  0  0  0  0  0  0  0  0  0  0  0
   11.1581   -4.4704   20.4664 C   0  0  0  0  0  0  0  0  0  0  0  0
   12.0922   -5.8188   20.8553 S   0  0  0  0  0  0  0  0  0  0  0  0
   17.7145  -10.5073   11.8406 C   0  0  0  0  0  0  0  0  0  0  0  0
   16.5374   -7.8169    6.5511 C   0  0  0  0  0  0  0  0  0  0  0  0
   17.4590   -8.1002    7.6442 N   0  0  0  0  0  0  0  0  0  0  0  0
   17.0817   -8.9056    8.6696 C   0  0  0  0  0  0  0  0  0  0  0  0
   17.9046   -9.1886    9.7022 C   0  0  0  0  0  0  0  0  0  0  0  0
   17.2576   -9.9952   10.5565 N   0  0  0  0  0  0  0  0  0  0  0  0
   16.0298  -10.1731   10.0091 C   0  0  0  0  0  0  0  0  0  0  0  0
   15.8881   -9.5115    8.8278 N   0  0  0  0  0  0  0  0  0  0  0  0
   19.1874   -8.6564    9.7467 C   0  0  0  0  0  0  0  0  0  0  0  0
   19.9652   -8.9200   10.7044 O   0  0  0  0  0  0  0  0  0  0  0  0
   19.5805   -7.8397    8.7158 N   0  0  0  0  0  0  0  0  0  0  0  0
   20.9192   -7.2590    8.7286 C   0  0  0  0  0  0  0  0  0  0  0  0
   18.7233   -7.5611    7.6695 C   0  0  0  0  0  0  0  0  0  0  0  0
   19.1011   -6.8058    6.7299 O   0  0  0  0  0  0  0  0  0  0  0  0
 22 23  1  0  0  0
 23 24  1  0  0  0
 24 25  2  0  0  0
 25 26  1  0  0  0
 26 21  1  0  0  0
 21  1  1  0  0  0
  1  2  2  0  0  0
  1  3  1  0  0  0
  3  5  1  0  0  0
  5  6  2  0  0  0
  6  7  1  0  0  0
  7  8  2  0  0  0
  8  9  1  0  0  0
  9 10  2  0  0  0
  8 11  1  0  0  0
 11 12  2  0  0  0
 11 13  2  0  0  0
 11 14  1  0  0  0
 14 16  1  0  0  0
 16 17  2  0  0  0
 17 18  1  0  0  0
 18 19  2  0  0  0
 19 20  1  0  0  0
 26 27  1  0  0  0
 27 28  2  0  0  0
 25 29  1  0  0  0
 29 30  2  0  0  0
 29 31  1  0  0  0
 31 32  1  0  0  0
 31 33  1  0  0  0
 33 34  2  0  0  0
 33 23  1  0  0  0
 28 24  1  0  0  0
 10  5  1  0  0  0
 20 16  1  0  0  0
  3  4  1  0  0  0
 14 15  1  0  0  0
M  END
>  <minimizedAffinity>
-1.75498

>  <minimizedRMSD>
2.59026

$$$$
ChemDiv-D454-0134 MCULE-6257138040 MolPort-007-707-619 PubChem-46268871 ZINC000019855332 ZINC19855332


 33 37  0  0  0  0  0  0  0  0999 V2000
   16.2040   -8.7136   16.9999 C   0  0  0  0  0  0  0  0  0  0  0  0
   15.2958   -9.3457   16.1218 C   0  0  0  0  0  0  0  0  0  0  0  0
   13.9015   -9.6812   16.5272 C   0  0  0  0  0  0  0  0  0  0  0  0
   15.7221   -9.7398   14.8501 C   0  0  0  0  0  0  0  0  0  0  0  0
   17.0457   -9.5306   14.4341 C   0  0  0  0  0  0  0  0  0  0  0  0
   17.9481   -8.9335   15.3264 C   0  0  0  0  0  0  0  0  0  0  0  0
   17.5312   -8.5362   16.5982 C   0  0  0  0  0  0  0  0  0  0  0  0
   17.4712   -9.9266   13.1169 N   0  0  0  0  0  0  0  0  0  0  0  0
   18.8884  -10.1714   12.8275 C   0  0  0  0  0  0  0  0  0  0  0  0
   19.3448   -9.3384   11.6237 C   0  0  0  0  0  0  0  0  0  0  0  0
   18.2980   -9.2915   10.6052 N   0  0  0  0  0  0  0  0  0  0  0  0
   17.0018   -9.6426   10.7686 C   0  0  0  0  0  0  0  0  0  0  0  0
   16.4908  -10.1908   12.0596 C   0  0  0  0  0  0  0  0  0  0  0  0
   16.2382   -9.4529    9.6612 N   0  0  0  0  0  0  0  0  0  0  0  0
   17.1250   -8.9426    8.7818 C   0  0  0  0  0  0  0  0  0  0  0  0
   16.8837   -8.5454    7.4689 C   0  0  0  0  0  0  0  0  0  0  0  0
   17.9700   -8.0273    6.7383 C   0  0  0  0  0  0  0  0  0  0  0  0
   19.2504   -7.9210    7.3283 C   0  0  0  0  0  0  0  0  0  0  0  0
   19.4632   -8.3304    8.6576 C   0  0  0  0  0  0  0  0  0  0  0  0
   18.3652   -8.8385    9.3488 C   0  0  0  0  0  0  0  0  0  0  0  0
   14.7543   -7.4083   18.6284 C   0  0  0  0  0  0  0  0  0  0  0  0
   14.2253   -6.7030   17.7291 O   0  0  0  0  0  0  0  0  0  0  0  0
   15.8352   -8.2951   18.3203 N   0  0  0  0  0  0  0  0  0  0  0  0
   16.3655   -8.6442   19.0727 H   0  0  0  0  0  0  0  0  0  0  0  0
   14.2979   -7.2556   20.0405 C   0  0  0  0  0  0  0  0  0  0  0  0
   13.3612   -8.2750   20.3786 O   0  0  0  0  0  0  0  0  0  0  0  0
    8.6053   -9.3552   17.4471 C   0  0  0  0  0  0  0  0  0  0  0  0
    9.8452   -9.0622   18.2123 C   0  0  0  0  0  0  0  0  0  0  0  0
   10.3834   -7.7725   18.2045 C   0  0  0  0  0  0  0  0  0  0  0  0
   11.5508   -7.4983   18.9228 C   0  0  0  0  0  0  0  0  0  0  0  0
   12.1888   -8.5152   19.6528 C   0  0  0  0  0  0  0  0  0  0  0  0
   11.6415   -9.8025   19.6582 C   0  0  0  0  0  0  0  0  0  0  0  0
   10.4735  -10.0768   18.9399 C   0  0  0  0  0  0  0  0  0  0  0  0
 27 28  1  0  0  0
 28 29  2  0  0  0
 29 30  1  0  0  0
 30 31  2  0  0  0
 31 26  1  0  0  0
 31 32  1  0  0  0
 26 25  1  0  0  0
 25 21  1  0  0  0
 21 22  2  0  0  0
 21 23  1  0  0  0
 23  1  1  0  0  0
  1  2  2  0  0  0
  2  3  1  0  0  0
  2  4  1  0  0  0
  4  5  2  0  0  0
  5  6  1  0  0  0
  5  8  1  0  0  0
  6  7  2  0  0  0
  7  1  1  0  0  0
  8  9  1  0  0  0
  9 10  1  0  0  0
 10 11  1  0  0  0
 11 12  1  0  0  0
 12 13  1  0  0  0
 12 14  2  0  0  0
 13  8  1  0  0  0
 14 15  1  0  0  0
 15 16  2  0  0  0
 16 17  1  0  0  0
 17 18  2  0  0  0
 18 19  1  0  0  0
 19 20  2  0  0  0
 20 15  1  0  0  0
 20 11  1  0  0  0
 32 33  2  0  0  0
 33 28  1  0  0  0
 23 24  1  0  0  0
M  END
>  <minimizedAffinity>
-1.74788

>  <minimizedRMSD>
1.23446

$$$$
ChemDiv-G756-0846 MCULE-1567446457 MolPort-007-879-436 PubChem-46356248 ZINC000033067942 ZINC33067942


 38 41  0  0  0  0  0  0  0  0999 V2000
   17.6494  -10.9934   16.0310 C   0  0  0  0  0  0  0  0  0  0  0  0
   18.2075  -12.2710   15.9797 C   0  0  0  0  0  0  0  0  0  0  0  0
   18.6983  -12.7779   14.7759 C   0  0  0  0  0  0  0  0  0  0  0  0
   18.6373  -12.0174   13.6045 C   0  0  0  0  0  0  0  0  0  0  0  0
   19.1580  -12.6507   12.3605 C   0  0  0  0  0  0  0  0  0  0  0  0
   18.0684  -10.7166   13.6407 C   0  0  0  0  0  0  0  0  0  0  0  0
   17.5807  -10.2286   14.8588 C   0  0  0  0  0  0  0  0  0  0  0  0
   15.9019   -9.0454   18.8274 N   0  0  0  0  0  0  0  0  0  0  0  0
   16.3435   -9.3438   17.4968 C   0  0  0  0  0  0  0  0  0  0  0  0
   16.0284   -8.5966   16.5319 O   0  0  0  0  0  0  0  0  0  0  0  0
   17.1548  -10.5068   17.2860 N   0  0  0  0  0  0  0  0  0  0  0  0
   16.1130   -9.7107   19.5217 H   0  0  0  0  0  0  0  0  0  0  0  0
   17.3978  -11.0257   18.0866 H   0  0  0  0  0  0  0  0  0  0  0  0
   13.8433   -5.5652   20.1318 C   0  0  0  0  0  0  0  0  0  0  0  0
   14.9025   -6.0993   20.8792 C   0  0  0  0  0  0  0  0  0  0  0  0
   15.5681   -7.2477   20.4407 C   0  0  0  0  0  0  0  0  0  0  0  0
   15.1844   -7.8784   19.2526 C   0  0  0  0  0  0  0  0  0  0  0  0
   14.1266   -7.3426   18.5030 C   0  0  0  0  0  0  0  0  0  0  0  0
   13.4600   -6.1945   18.9405 C   0  0  0  0  0  0  0  0  0  0  0  0
   13.1405   -4.3545   20.5870 C   0  0  0  0  0  0  0  0  0  0  0  0
   13.7008   -3.5659   21.3979 O   0  0  0  0  0  0  0  0  0  0  0  0
   11.8536   -4.0821   20.1158 O   0  0  0  0  0  0  0  0  0  0  0  0
   11.5961   -5.1202   17.9703 C   0  0  0  0  0  0  0  0  0  0  0  0
   11.5961   -3.8180   18.7444 C   0  0  0  0  0  0  0  0  0  0  0  0
   17.9453   -9.8706   12.5270 O   0  0  0  0  0  0  0  0  0  0  0  0
   16.7513   -9.6540   11.7882 C   0  0  0  0  0  0  0  0  0  0  0  0
   17.0767   -9.4837   10.3474 C   0  0  0  0  0  0  0  0  0  0  0  0
   16.3527  -10.1818    9.3874 C   0  0  0  0  0  0  0  0  0  0  0  0
   16.6713  -10.0021    8.0427 C   0  0  0  0  0  0  0  0  0  0  0  0
   16.0159  -10.6373    7.1711 O   0  0  0  0  0  0  0  0  0  0  0  0
   17.6798   -9.1482    7.6822 N   0  0  0  0  0  0  0  0  0  0  0  0
   17.9846   -8.9760    6.3613 C   0  0  0  0  0  0  0  0  0  0  0  0
   19.0054   -8.1110    5.9684 C   0  0  0  0  0  0  0  0  0  0  0  0
   19.7219   -7.4162    6.9393 C   0  0  0  0  0  0  0  0  0  0  0  0
   19.4169   -7.5880    8.2882 C   0  0  0  0  0  0  0  0  0  0  0  0
   20.1971   -6.8316    9.3097 C   0  0  0  0  0  0  0  0  0  0  0  0
   18.3824   -8.4662    8.6536 C   0  0  0  0  0  0  0  0  0  0  0  0
   18.0722   -8.6445    9.9667 N   0  0  0  0  0  0  0  0  0  0  0  0
 23 24  1  0  0  0
 24 22  1  0  0  0
 22 20  1  0  0  0
 20 21  2  0  0  0
 20 14  1  0  0  0
 14 15  2  0  0  0
 15 16  1  0  0  0
 16 17  2  0  0  0
 17  8  1  0  0  0
 17 18  1  0  0  0
  8  9  1  0  0  0
  9 10  2  0  0  0
  9 11  1  0  0  0
 11  1  1  0  0  0
  1  2  2  0  0  0
  2  3  1  0  0  0
  3  4  2  0  0  0
  4  5  1  0  0  0
  4  6  1  0  0  0
  6 25  1  0  0  0
  6  7  2  0  0  0
 25 26  1  0  0  0
 26 27  1  0  0  0
 27 28  2  0  0  0
 28 29  1  0  0  0
 29 30  2  0  0  0
 29 31  1  0  0  0
 31 32  1  0  0  0
 32 33  2  0  0  0
 33 34  1  0  0  0
 34 35  2  0  0  0
 35 36  1  0  0  0
 35 37  1  0  0  0
 37 38  2  0  0  0
 37 31  1  0  0  0
 38 27  1  0  0  0
  7  1  1  0  0  0
 18 19  2  0  0  0
 19 14  1  0  0  0
  8 12  1  0  0  0
 11 13  1  0  0  0
M  END
>  <minimizedAffinity>
-1.36968

>  <minimizedRMSD>
2.99588

$$$$
ChemDiv-D483-1757 MCULE-1938412749 MolPort-007-710-988 PubChem-20899114


 32 35  0  0  0  0  0  0  0  0999 V2000
   17.0096  -10.5745   13.5783 C   0  0  0  0  0  0  0  0  0  0  0  0
   15.6936  -10.3320   13.4282 N   0  0  0  0  0  0  0  0  0  0  0  0
   15.5784   -9.3719   12.5218 N   0  0  0  0  0  0  0  0  0  0  0  0
   16.8254   -9.0511   12.1267 C   0  0  0  0  0  0  0  0  0  0  0  0
   17.7474   -9.7877   12.7774 N   0  0  0  0  0  0  0  0  0  0  0  0
   19.2005   -9.7159   12.6944 C   0  0  0  0  0  0  0  0  0  0  0  0
   17.6618  -11.7848   14.7350 S   0  0  0  0  0  0  0  0  0  0  0  0
   18.7006  -11.2763   17.2196 C   0  0  0  0  0  0  0  0  0  0  0  0
   18.2892  -10.5634   15.9420 C   0  0  0  0  0  0  0  0  0  0  0  0
   17.3085   -9.4760   16.2461 C   0  0  0  0  0  0  0  0  0  0  0  0
   17.2787   -8.4665   15.4940 O   0  0  0  0  0  0  0  0  0  0  0  0
   16.4462   -9.5728   17.3922 N   0  0  0  0  0  0  0  0  0  0  0  0
   16.5335  -10.3769   17.9535 H   0  0  0  0  0  0  0  0  0  0  0  0
   15.4685   -8.5992   17.7900 C   0  0  0  0  0  0  0  0  0  0  0  0
   14.4389   -8.1851   16.9237 C   0  0  0  0  0  0  0  0  0  0  0  0
   13.5121   -7.2230   17.3344 C   0  0  0  0  0  0  0  0  0  0  0  0
   13.6025   -6.6686   18.6181 C   0  0  0  0  0  0  0  0  0  0  0  0
   14.6174   -7.0842   19.4912 C   0  0  0  0  0  0  0  0  0  0  0  0
   15.5433   -8.0486   19.0791 C   0  0  0  0  0  0  0  0  0  0  0  0
   17.1061   -7.9229   11.1820 C   0  0  0  0  0  0  0  0  0  0  0  0
   17.3787   -8.3750    9.7718 C   0  0  0  0  0  0  0  0  0  0  0  0
   16.6456   -9.4064    9.1608 C   0  0  0  0  0  0  0  0  0  0  0  0
   15.5396  -10.1071    9.8727 C   0  0  0  0  0  0  0  0  0  0  0  0
   16.9297   -9.7721    7.8854 N   0  0  0  0  0  0  0  0  0  0  0  0
   17.8985   -9.1467    7.1695 C   0  0  0  0  0  0  0  0  0  0  0  0
   18.1555   -9.5624    5.8584 C   0  0  0  0  0  0  0  0  0  0  0  0
   19.1422   -8.9150    5.1163 C   0  0  0  0  0  0  0  0  0  0  0  0
   19.8547   -7.8584    5.6838 C   0  0  0  0  0  0  0  0  0  0  0  0
   19.5739   -7.4674    6.9940 C   0  0  0  0  0  0  0  0  0  0  0  0
   18.6163   -8.1141    7.7266 N   0  0  0  0  0  0  0  0  0  0  0  0
   18.3685   -7.7245    9.0168 C   0  0  0  0  0  0  0  0  0  0  0  0
   19.0323   -6.7853    9.5408 O   0  0  0  0  0  0  0  0  0  0  0  0
  9  8  1  0  0  0
  9  7  1  0  0  0
  9 10  1  0  0  0
  7  1  1  0  0  0
  1  2  2  0  0  0
  2  3  1  0  0  0
  3  4  2  0  0  0
  4 20  1  0  0  0
  4  5  1  0  0  0
 20 21  1  0  0  0
 21 22  2  0  0  0
 22 23  1  0  0  0
 22 24  1  0  0  0
 24 25  2  0  0  0
 25 26  1  0  0  0
 26 27  2  0  0  0
 27 28  1  0  0  0
 28 29  2  0  0  0
 29 30  1  0  0  0
 30 31  1  0  0  0
 30 25  1  0  0  0
 31 32  2  0  0  0
 31 21  1  0  0  0
  5  6  1  0  0  0
  5  1  1  0  0  0
 10 11  2  0  0  0
 10 12  1  0  0  0
 12 14  1  0  0  0
 14 15  2  0  0  0
 15 16  1  0  0  0
 16 17  2  0  0  0
 17 18  1  0  0  0
 18 19  2  0  0  0
 19 14  1  0  0  0
 12 13  1  0  0  0
M  END
>  <minimizedAffinity>
-1.28796

>  <minimizedRMSD>
1.77320

$$$$
ChemDiv-C548-3466 MolPort-007-642-477 PubChem-6619640 ZINC000009607889


 35 38  0  0  0  0  0  0  0  0999 V2000
   17.1753   -9.3560   17.0595 C   0  0  0  0  0  0  0  0  0  0  0  0
   16.6690  -10.5812   16.2803 C   0  0  0  0  0  0  0  0  0  0  0  0
   16.9330  -10.4422   14.7828 C   0  0  0  0  0  0  0  0  0  0  0  0
   18.4338  -10.3172   14.4884 C   0  0  0  0  0  0  0  0  0  0  0  0
   19.2181   -9.5963   15.5993 C   0  0  0  0  0  0  0  0  0  0  0  0
   18.3355   -8.6207   16.3735 C   0  0  0  0  0  0  0  0  0  0  0  0
   15.6563   -8.2107   18.7118 N   0  0  0  0  0  0  0  0  0  0  0  0
   16.0595   -8.4078   17.3502 C   0  0  0  0  0  0  0  0  0  0  0  0
   15.4948   -7.7917   16.4056 O   0  0  0  0  0  0  0  0  0  0  0  0
   16.1562   -8.7162   19.3928 H   0  0  0  0  0  0  0  0  0  0  0  0
   12.5257   -5.6928   20.1178 C   0  0  0  0  0  0  0  0  0  0  0  0
   13.5688   -6.0587   20.9702 C   0  0  0  0  0  0  0  0  0  0  0  0
   14.6121   -6.8845   20.5337 C   0  0  0  0  0  0  0  0  0  0  0  0
   14.6053   -7.3589   19.1947 C   0  0  0  0  0  0  0  0  0  0  0  0
   13.5510   -6.9855   18.3461 C   0  0  0  0  0  0  0  0  0  0  0  0
   12.5220   -6.1614   18.7989 C   0  0  0  0  0  0  0  0  0  0  0  0
   11.7136   -3.9436   21.6674 C   0  0  0  0  0  0  0  0  0  0  0  0
   11.5094   -4.8671   20.6066 O   0  0  0  0  0  0  0  0  0  0  0  0
   15.6084   -7.1899   21.4753 O   0  0  0  0  0  0  0  0  0  0  0  0
   15.4639   -7.0943   22.8848 C   0  0  0  0  0  0  0  0  0  0  0  0
   18.6196   -9.6067   13.1603 C   0  0  0  0  0  0  0  0  0  0  0  0
   18.7565  -10.5803   12.0886 N   0  0  0  0  0  0  0  0  0  0  0  0
   17.8429  -10.9668   11.8513 H   0  0  0  0  0  0  0  0  0  0  0  0
   19.4250   -9.7615   10.7172 S   0  0  0  0  0  0  0  0  0  0  0  0
   20.1403   -8.5216   11.1785 O   0  0  0  0  0  0  0  0  0  0  0  0
   20.4098  -10.6630   10.0285 O   0  0  0  0  0  0  0  0  0  0  0  0
   18.1458   -9.3293    9.5854 C   0  0  0  0  0  0  0  0  0  0  0  0
   18.4620   -8.6391    8.4058 C   0  0  0  0  0  0  0  0  0  0  0  0
   17.4593   -8.2765    7.4939 C   0  0  0  0  0  0  0  0  0  0  0  0
   16.1191   -8.5960    7.7436 C   0  0  0  0  0  0  0  0  0  0  0  0
   15.7909   -9.2817    8.9122 C   0  0  0  0  0  0  0  0  0  0  0  0
   14.5165   -9.6242    9.2239 N   0  0  0  0  0  0  0  0  0  0  0  0
   14.7671  -10.3831   10.6723 S   0  0  0  0  0  0  0  0  0  0  0  0
   16.3959  -10.3164   10.9525 N   0  0  0  0  0  0  0  0  0  0  0  0
   16.8054   -9.6528    9.8408 C   0  0  0  0  0  0  0  0  0  0  0  0
 17 18  1  0  0  0
 18 11  1  0  0  0
 11 12  2  0  0  0
 12 13  1  0  0  0
 13 19  1  0  0  0
 19 20  1  0  0  0
 13 14  2  0  0  0
 14  7  1  0  0  0
  7  8  1  0  0  0
  8  9  2  0  0  0
  8  1  1  0  0  0
  1  2  1  0  0  0
  2  3  1  0  0  0
  3  4  1  0  0  0
  4 21  1  0  0  0
 21 22  1  0  0  0
 22 24  1  0  0  0
 24 25  2  0  0  0
 24 26  2  0  0  0
 24 27  1  0  0  0
 27 28  2  0  0  0
 28 29  1  0  0  0
 29 30  2  0  0  0
 30 31  1  0  0  0
 31 32  2  0  0  0
 32 33  1  0  0  0
 33 34  1  0  0  0
 34 35  2  0  0  0
  4  5  1  0  0  0
  5  6  1  0  0  0
 14 15  1  0  0  0
 15 16  2  0  0  0
 16 11  1  0  0  0
  6  1  1  0  0  0
 35 27  1  0  0  0
 35 31  1  0  0  0
  7 10  1  0  0  0
 22 23  1  0  0  0
M  END
>  <minimizedAffinity>
-1.28786

>  <minimizedRMSD>
1.73999

$$$$
ChemDiv-D483-1297 MCULE-3736847830 MolPort-007-710-908 PubChem-20899038 ZINC000015859200 ZINC15859200


 34 37  0  0  0  0  0  0  0  0999 V2000
   17.7378   -9.7541   14.4622 C   0  0  0  0  0  0  0  0  0  0  0  0
   18.1408  -10.7024   13.5954 N   0  0  0  0  0  0  0  0  0  0  0  0
   17.4962  -10.4823   12.4572 N   0  0  0  0  0  0  0  0  0  0  0  0
   16.7106   -9.4045   12.6524 C   0  0  0  0  0  0  0  0  0  0  0  0
   16.8398   -8.9271   13.9016 N   0  0  0  0  0  0  0  0  0  0  0  0
   16.1809   -7.7774   14.5007 C   0  0  0  0  0  0  0  0  0  0  0  0
   18.3267   -9.6324   16.1504 S   0  0  0  0  0  0  0  0  0  0  0  0
   16.6814   -9.9563   16.8552 C   0  0  0  0  0  0  0  0  0  0  0  0
   14.6863   -8.6762   17.7196 N   0  0  0  0  0  0  0  0  0  0  0  0
   16.0588   -8.6852   17.3148 C   0  0  0  0  0  0  0  0  0  0  0  0
   16.7390   -7.6248   17.3167 O   0  0  0  0  0  0  0  0  0  0  0  0
   14.1456   -9.4716   17.5093 H   0  0  0  0  0  0  0  0  0  0  0  0
   14.2633   -7.3269   19.7781 C   0  0  0  0  0  0  0  0  0  0  0  0
   14.0376   -7.5986   18.4078 C   0  0  0  0  0  0  0  0  0  0  0  0
   13.0951   -6.8396   17.7049 C   0  0  0  0  0  0  0  0  0  0  0  0
   12.4180   -5.7898   18.3294 C   0  0  0  0  0  0  0  0  0  0  0  0
   12.6679   -5.4978   19.6711 C   0  0  0  0  0  0  0  0  0  0  0  0
   13.5832   -6.2664   20.3933 C   0  0  0  0  0  0  0  0  0  0  0  0
   14.8651   -8.0139   22.0840 C   0  0  0  0  0  0  0  0  0  0  0  0
   15.1827   -8.1661   20.6073 C   0  0  0  0  0  0  0  0  0  0  0  0
   15.8045   -8.8314   11.6091 C   0  0  0  0  0  0  0  0  0  0  0  0
   16.3671   -9.0589   10.2344 C   0  0  0  0  0  0  0  0  0  0  0  0
   15.8963  -10.1008    9.4216 C   0  0  0  0  0  0  0  0  0  0  0  0
   14.7957  -11.0016    9.8691 C   0  0  0  0  0  0  0  0  0  0  0  0
   16.4416  -10.2985    8.1962 N   0  0  0  0  0  0  0  0  0  0  0  0
   17.4414   -9.5093    7.7308 C   0  0  0  0  0  0  0  0  0  0  0  0
   17.9727   -9.7568    6.4626 C   0  0  0  0  0  0  0  0  0  0  0  0
   19.0005   -8.9490    5.9795 C   0  0  0  0  0  0  0  0  0  0  0  0
   19.4858   -7.9058    6.7644 C   0  0  0  0  0  0  0  0  0  0  0  0
   20.5817   -7.0371    6.2630 C   0  0  0  0  0  0  0  0  0  0  0  0
   18.9343   -7.6835    8.0268 C   0  0  0  0  0  0  0  0  0  0  0  0
   17.9266   -8.4764    8.5005 N   0  0  0  0  0  0  0  0  0  0  0  0
   17.4005   -8.2440    9.7432 C   0  0  0  0  0  0  0  0  0  0  0  0
   17.8397   -7.2967   10.4558 O   0  0  0  0  0  0  0  0  0  0  0  0
 19 20  1  0  0  0
 20 13  1  0  0  0
 13 14  2  0  0  0
 14  9  1  0  0  0
 14 15  1  0  0  0
  9 10  1  0  0  0
 10 11  2  0  0  0
 10  8  1  0  0  0
  8  7  1  0  0  0
  7  1  1  0  0  0
  1  2  2  0  0  0
  2  3  1  0  0  0
  3  4  2  0  0  0
  4 21  1  0  0  0
  4  5  1  0  0  0
 21 22  1  0  0  0
 22 23  2  0  0  0
 23 24  1  0  0  0
 23 25  1  0  0  0
 25 26  2  0  0  0
 26 27  1  0  0  0
 27 28  2  0  0  0
 28 29  1  0  0  0
 29 30  1  0  0  0
 29 31  2  0  0  0
 31 32  1  0  0  0
 32 33  1  0  0  0
 32 26  1  0  0  0
 33 34  2  0  0  0
 33 22  1  0  0  0
  5  6  1  0  0  0
  5  1  1  0  0  0
 15 16  2  0  0  0
 16 17  1  0  0  0
 17 18  2  0  0  0
 18 13  1  0  0  0
  9 12  1  0  0  0
M  END
>  <minimizedAffinity>
-1.21260

>  <minimizedRMSD>
2.96624

$$$$
ChemDiv-8016-5989 MCULE-6424826398 MolPort-002-731-858 PubChem-1508721 ZINC000001428657 ZINC01428657


 30 34  0  0  0  0  0  0  0  0999 V2000
   15.6617  -10.0866   11.5202 C   0  0  0  0  0  0  0  0  0  0  0  0
   16.6570   -9.0801   11.4942 C   0  0  0  0  0  0  0  0  0  0  0  0
   16.9884   -8.4193   12.6878 C   0  0  0  0  0  0  0  0  0  0  0  0
   16.3499   -8.7383   13.8877 C   0  0  0  0  0  0  0  0  0  0  0  0
   15.3748   -9.7349   13.9123 C   0  0  0  0  0  0  0  0  0  0  0  0
   15.0318  -10.4023   12.7365 C   0  0  0  0  0  0  0  0  0  0  0  0
   17.3443   -8.7141   10.2817 N   0  0  0  0  0  0  0  0  0  0  0  0
   16.7574   -8.5937    9.0907 N   0  0  0  0  0  0  0  0  0  0  0  0
   17.7434   -8.2457    8.2520 C   0  0  0  0  0  0  0  0  0  0  0  0
   17.6786   -7.9932    6.8857 C   0  0  0  0  0  0  0  0  0  0  0  0
   18.8828   -7.6427    6.2437 C   0  0  0  0  0  0  0  0  0  0  0  0
   20.0918   -7.5574    6.9750 C   0  0  0  0  0  0  0  0  0  0  0  0
   20.1141   -7.8213    8.3589 C   0  0  0  0  0  0  0  0  0  0  0  0
   18.9046   -8.1637    8.9544 C   0  0  0  0  0  0  0  0  0  0  0  0
   18.6528   -8.4597   10.2373 N   0  0  0  0  0  0  0  0  0  0  0  0
   15.3080  -10.7620   10.3460 O   0  0  0  0  0  0  0  0  0  0  0  0
   16.7208  -11.4481    8.5342 C   0  0  0  0  0  0  0  0  0  0  0  0
   16.0508  -11.8580    9.8289 C   0  0  0  0  0  0  0  0  0  0  0  0
   16.7331   -8.0391   15.1437 C   0  0  0  0  0  0  0  0  0  0  0  0
   16.8416   -9.2316   16.5105 S   0  0  0  0  0  0  0  0  0  0  0  0
   15.6031   -8.3628   17.4604 C   0  0  0  0  0  0  0  0  0  0  0  0
   15.7188   -8.1581   18.7983 N   0  0  0  0  0  0  0  0  0  0  0  0
   14.5940   -7.4874   19.0826 C   0  0  0  0  0  0  0  0  0  0  0  0
   14.1789   -7.0120   20.3239 C   0  0  0  0  0  0  0  0  0  0  0  0
   12.9482   -6.3310   20.3767 C   0  0  0  0  0  0  0  0  0  0  0  0
   12.1787   -6.1473   19.2058 C   0  0  0  0  0  0  0  0  0  0  0  0
   12.6307   -6.6424   17.9682 C   0  0  0  0  0  0  0  0  0  0  0  0
   13.8525   -7.3103   17.9542 C   0  0  0  0  0  0  0  0  0  0  0  0
   14.4720   -7.8602   16.9007 N   0  0  0  0  0  0  0  0  0  0  0  0
   14.1813   -7.8918   15.9606 H   0  0  0  0  0  0  0  0  0  0  0  0
 17 18  1  0  0  0
 18 16  1  0  0  0
 16  1  1  0  0  0
  1  2  2  0  0  0
  2  3  1  0  0  0
  2  7  1  0  0  0
  3  4  2  0  0  0
  4 19  1  0  0  0
  4  5  1  0  0  0
 19 20  1  0  0  0
 20 21  1  0  0  0
 21 22  2  0  0  0
 22 23  1  0  0  0
 23 24  2  0  0  0
 24 25  1  0  0  0
 25 26  2  0  0  0
 26 27  1  0  0  0
 27 28  2  0  0  0
 28 29  1  0  0  0
 28 23  1  0  0  0
 29 21  1  0  0  0
  5  6  2  0  0  0
  6  1  1  0  0  0
  7  8  1  0  0  0
  8  9  2  0  0  0
  9 10  1  0  0  0
 10 11  2  0  0  0
 11 12  1  0  0  0
 12 13  2  0  0  0
 13 14  1  0  0  0
 14 15  2  0  0  0
 14  9  1  0  0  0
 15  7  1  0  0  0
 29 30  1  0  0  0
M  END
>  <minimizedAffinity>
-1.04830

>  <minimizedRMSD>
1.91732

$$$$
ChemDiv-G357-0504 CHEMBL1354785 MCULE-3680404120 MolPort-007-847-206 PubChem-16027560 ZINC000008607357


 31 34  0  0  0  0  0  0  0  0999 V2000
   17.9044  -10.3914   14.1147 C   0  0  0  0  0  0  0  0  0  0  0  0
   18.5554  -11.4392   14.3823 O   0  0  0  0  0  0  0  0  0  0  0  0
   17.1932   -9.6721   15.1837 C   0  0  0  0  0  0  0  0  0  0  0  0
   17.5582   -9.8461   16.5259 C   0  0  0  0  0  0  0  0  0  0  0  0
   16.8790   -9.1601   17.5368 C   0  0  0  0  0  0  0  0  0  0  0  0
   15.8282   -8.2928   17.2214 C   0  0  0  0  0  0  0  0  0  0  0  0
   15.4627   -8.1185   15.8785 C   0  0  0  0  0  0  0  0  0  0  0  0
   16.1409   -8.8036   14.8667 C   0  0  0  0  0  0  0  0  0  0  0  0
   15.1563   -7.6074   18.2869 N   0  0  0  0  0  0  0  0  0  0  0  0
   13.8239   -7.0760   18.2626 C   0  0  0  0  0  0  0  0  0  0  0  0
   13.1030   -7.1834   17.2342 O   0  0  0  0  0  0  0  0  0  0  0  0
   15.6626   -7.4890   19.1229 H   0  0  0  0  0  0  0  0  0  0  0  0
   13.2937   -6.3987   19.4515 C   0  0  0  0  0  0  0  0  0  0  0  0
   11.9760   -6.0129   19.6438 C   0  0  0  0  0  0  0  0  0  0  0  0
   11.7692   -5.3854   20.8810 C   0  0  0  0  0  0  0  0  0  0  0  0
   12.9129   -5.2718   21.6684 C   0  0  0  0  0  0  0  0  0  0  0  0
   14.1815   -5.9617   20.8055 S   0  0  0  0  0  0  0  0  0  0  0  0
   17.8551   -9.9086   12.8050 O   0  0  0  0  0  0  0  0  0  0  0  0
   18.3787  -10.6479   11.7115 C   0  0  0  0  0  0  0  0  0  0  0  0
   17.8055   -8.4285    8.1725 N   0  0  0  0  0  0  0  0  0  0  0  0
   17.7817   -7.6930    7.0636 N   0  0  0  0  0  0  0  0  0  0  0  0
   19.0194   -7.2732    6.7056 C   0  0  0  0  0  0  0  0  0  0  0  0
   20.2120   -7.7994    7.7930 S   0  0  0  0  0  0  0  0  0  0  0  0
   19.0379   -8.5881    8.6992 C   0  0  0  0  0  0  0  0  0  0  0  0
   19.2419   -9.3034    9.8322 N   0  0  0  0  0  0  0  0  0  0  0  0
   18.1758   -9.8842   10.4522 C   0  0  0  0  0  0  0  0  0  0  0  0
   16.8804   -9.7277    9.9320 C   0  0  0  0  0  0  0  0  0  0  0  0
   16.7118   -8.9803    8.7612 C   0  0  0  0  0  0  0  0  0  0  0  0
   15.5634   -8.8239    8.2677 O   0  0  0  0  0  0  0  0  0  0  0  0
   19.2776   -6.3994    5.5296 C   0  0  0  0  0  0  0  0  0  0  0  0
   19.1240   -4.9446    5.9256 C   0  0  0  0  0  0  0  0  0  0  0  0
 20 21  1  0  0  0
 21 22  2  0  0  0
 22 23  1  0  0  0
 23 24  1  0  0  0
 24 25  2  0  0  0
 25 26  1  0  0  0
 26 19  1  0  0  0
 19 18  1  0  0  0
 18  1  1  0  0  0
  1  2  2  0  0  0
  1  3  1  0  0  0
  3  4  2  0  0  0
  4  5  1  0  0  0
  5  6  2  0  0  0
  6  7  1  0  0  0
  7  8  2  0  0  0
  6  9  1  0  0  0
  9 10  1  0  0  0
 10 11  2  0  0  0
 10 13  1  0  0  0
 13 14  2  0  0  0
 14 15  1  0  0  0
 15 16  2  0  0  0
 16 17  1  0  0  0
 26 27  2  0  0  0
 27 28  1  0  0  0
 28 29  2  0  0  0
 22 30  1  0  0  0
 30 31  1  0  0  0
 24 20  1  0  0  0
  8  3  1  0  0  0
 17 13  1  0  0  0
 28 20  1  0  0  0
  9 12  1  0  0  0
M  END
>  <minimizedAffinity>
-0.98685

>  <minimizedRMSD>
1.36755

$$$$
ChemDiv-K292-1226 MCULE-9949065645 MolPort-007-917-032 PubChem-5323224 ZINC000009474677 ZINC09474677


 34 36  0  0  0  0  0  0  0  0999 V2000
   17.3297   -9.9540   10.2569 C   0  0  0  0  0  0  0  0  0  0  0  0
   16.9839   -9.9454    8.9361 N   0  0  0  0  0  0  0  0  0  0  0  0
   17.6814   -9.1816    8.0619 C   0  0  0  0  0  0  0  0  0  0  0  0
   18.7420   -8.4255    8.4896 C   0  0  0  0  0  0  0  0  0  0  0  0
   19.3977   -7.6136    7.1808 S   0  0  0  0  0  0  0  0  0  0  0  0
   18.3103   -8.2349    6.0359 C   0  0  0  0  0  0  0  0  0  0  0  0
   17.4200   -9.0908    6.6929 C   0  0  0  0  0  0  0  0  0  0  0  0
   19.1151   -8.4297    9.8261 C   0  0  0  0  0  0  0  0  0  0  0  0
   20.0971   -7.7401   10.2149 O   0  0  0  0  0  0  0  0  0  0  0  0
   18.3966   -9.2017   10.7046 N   0  0  0  0  0  0  0  0  0  0  0  0
   16.3696  -10.9849   11.3768 S   0  0  0  0  0  0  0  0  0  0  0  0
   15.0168   -9.7752   11.5080 C   0  0  0  0  0  0  0  0  0  0  0  0
   13.9509  -10.0780   10.5139 C   0  0  0  0  0  0  0  0  0  0  0  0
   14.2721  -10.4095    9.3405 O   0  0  0  0  0  0  0  0  0  0  0  0
   12.6114  -10.0094   10.8976 O   0  0  0  0  0  0  0  0  0  0  0  0
   10.3045   -9.3821   10.7438 C   0  0  0  0  0  0  0  0  0  0  0  0
   11.7272   -9.0388   10.3584 C   0  0  0  0  0  0  0  0  0  0  0  0
   18.7592   -9.2092   12.1204 C   0  0  0  0  0  0  0  0  0  0  0  0
   18.5764  -10.6045   12.6989 C   0  0  0  0  0  0  0  0  0  0  0  0
   18.7628  -10.5880   14.2078 C   0  0  0  0  0  0  0  0  0  0  0  0
   17.4739  -10.2091   14.9311 C   0  0  0  0  0  0  0  0  0  0  0  0
   17.7376   -9.2750   16.1073 C   0  0  0  0  0  0  0  0  0  0  0  0
   16.4945   -8.5642   16.5269 C   0  0  0  0  0  0  0  0  0  0  0  0
   15.7505   -8.0617   15.6445 O   0  0  0  0  0  0  0  0  0  0  0  0
   16.1651   -8.4700   17.9198 N   0  0  0  0  0  0  0  0  0  0  0  0
   16.7883   -8.8961   18.5516 H   0  0  0  0  0  0  0  0  0  0  0  0
   15.0196   -7.8176   18.4851 C   0  0  0  0  0  0  0  0  0  0  0  0
   14.9970   -7.5665   19.8611 C   0  0  0  0  0  0  0  0  0  0  0  0
   13.8965   -6.9358   20.4479 C   0  0  0  0  0  0  0  0  0  0  0  0
   12.8069   -6.5425   19.6647 C   0  0  0  0  0  0  0  0  0  0  0  0
   12.8271   -6.7913   18.2832 C   0  0  0  0  0  0  0  0  0  0  0  0
   13.9267   -7.4242   17.6988 C   0  0  0  0  0  0  0  0  0  0  0  0
   11.7253   -5.9062   20.2805 O   0  0  0  0  0  0  0  0  0  0  0  0
   11.0071   -4.8453   19.6659 C   0  0  0  0  0  0  0  0  0  0  0  0
 16 17  1  0  0  0
 17 15  1  0  0  0
 15 13  1  0  0  0
 13 14  2  0  0  0
 13 12  1  0  0  0
 12 11  1  0  0  0
 11  1  1  0  0  0
  1  2  2  0  0  0
  2  3  1  0  0  0
  3  4  2  0  0  0
  4  5  1  0  0  0
  4  8  1  0  0  0
  5  6  1  0  0  0
  6  7  2  0  0  0
  7  3  1  0  0  0
  8  9  2  0  0  0
  8 10  1  0  0  0
 10 18  1  0  0  0
 10  1  1  0  0  0
 18 19  1  0  0  0
 19 20  1  0  0  0
 20 21  1  0  0  0
 21 22  1  0  0  0
 22 23  1  0  0  0
 23 24  2  0  0  0
 23 25  1  0  0  0
 25 27  1  0  0  0
 27 28  2  0  0  0
 28 29  1  0  0  0
 29 30  2  0  0  0
 30 33  1  0  0  0
 30 31  1  0  0  0
 33 34  1  0  0  0
 31 32  2  0  0  0
 32 27  1  0  0  0
 25 26  1  0  0  0
M  END
>  <minimizedAffinity>
-0.91526

>  <minimizedRMSD>
1.89908

$$$$
ChemDiv-C548-3530 MolPort-007-642-518 PubChem-20862365 ZINC000009608015


 33 36  0  0  0  0  0  0  0  0999 V2000
   16.6260   -9.7313   16.2581 C   0  0  0  0  0  0  0  0  0  0  0  0
   15.9610  -10.0755   14.9148 C   0  0  0  0  0  0  0  0  0  0  0  0
   16.7517   -9.5142   13.7357 C   0  0  0  0  0  0  0  0  0  0  0  0
   18.1717  -10.0933   13.6909 C   0  0  0  0  0  0  0  0  0  0  0  0
   18.7626  -10.3767   15.0835 C   0  0  0  0  0  0  0  0  0  0  0  0
   18.1386   -9.4891   16.1570 C   0  0  0  0  0  0  0  0  0  0  0  0
   15.5582   -7.5926   16.2024 O   0  0  0  0  0  0  0  0  0  0  0  0
   15.9583   -8.5627   16.9029 C   0  0  0  0  0  0  0  0  0  0  0  0
   15.7928   -8.5492   18.3218 N   0  0  0  0  0  0  0  0  0  0  0  0
   16.0830   -9.3360   18.8375 H   0  0  0  0  0  0  0  0  0  0  0  0
   15.2128   -7.4206   19.0383 C   0  0  0  0  0  0  0  0  0  0  0  0
   16.0287   -7.0972   20.2851 C   0  0  0  0  0  0  0  0  0  0  0  0
   15.1501   -6.6961   21.4236 C   0  0  0  0  0  0  0  0  0  0  0  0
   15.5948   -6.8799   22.7374 C   0  0  0  0  0  0  0  0  0  0  0  0
   14.7838   -6.5008   23.8116 C   0  0  0  0  0  0  0  0  0  0  0  0
   13.5281   -5.9333   23.5735 C   0  0  0  0  0  0  0  0  0  0  0  0
   13.0840   -5.7428   22.2614 C   0  0  0  0  0  0  0  0  0  0  0  0
   13.8943   -6.1219   21.1869 C   0  0  0  0  0  0  0  0  0  0  0  0
   19.0682   -9.1470   12.9137 C   0  0  0  0  0  0  0  0  0  0  0  0
   19.4498   -9.7497   11.6464 N   0  0  0  0  0  0  0  0  0  0  0  0
   18.6475  -10.2230   11.2310 H   0  0  0  0  0  0  0  0  0  0  0  0
   19.9907   -8.4788   10.6023 S   0  0  0  0  0  0  0  0  0  0  0  0
   20.0055   -7.1827   11.3650 O   0  0  0  0  0  0  0  0  0  0  0  0
   21.3842   -8.7809   10.1286 O   0  0  0  0  0  0  0  0  0  0  0  0
   18.9226   -8.3418    9.2081 C   0  0  0  0  0  0  0  0  0  0  0  0
   19.3199   -7.5831    8.0973 C   0  0  0  0  0  0  0  0  0  0  0  0
   18.4834   -7.4536    6.9783 C   0  0  0  0  0  0  0  0  0  0  0  0
   17.2316   -8.0797    6.9479 C   0  0  0  0  0  0  0  0  0  0  0  0
   16.8244   -8.8366    8.0453 C   0  0  0  0  0  0  0  0  0  0  0  0
   15.6274   -9.4718    8.0896 N   0  0  0  0  0  0  0  0  0  0  0  0
   15.7257  -10.1699    9.5861 S   0  0  0  0  0  0  0  0  0  0  0  0
   17.1942   -9.7279   10.2057 N   0  0  0  0  0  0  0  0  0  0  0  0
   17.6704   -8.9722    9.1831 C   0  0  0  0  0  0  0  0  0  0  0  0
  7  8  2  0  0  0
  8  9  1  0  0  0
  9 11  1  0  0  0
 11 12  1  0  0  0
 12 13  1  0  0  0
 13 14  2  0  0  0
 14 15  1  0  0  0
 15 16  2  0  0  0
 16 17  1  0  0  0
 17 18  2  0  0  0
  8  1  1  0  0  0
  1  2  1  0  0  0
  2  3  1  0  0  0
  3  4  1  0  0  0
  4 19  1  0  0  0
 19 20  1  0  0  0
 20 22  1  0  0  0
 22 23  2  0  0  0
 22 24  2  0  0  0
 22 25  1  0  0  0
 25 26  2  0  0  0
 26 27  1  0  0  0
 27 28  2  0  0  0
 28 29  1  0  0  0
 29 30  2  0  0  0
 30 31  1  0  0  0
 31 32  1  0  0  0
 32 33  2  0  0  0
  4  5  1  0  0  0
  5  6  1  0  0  0
 18 13  1  0  0  0
  6  1  1  0  0  0
 33 25  1  0  0  0
 33 29  1  0  0  0
  9 10  1  0  0  0
 20 21  1  0  0  0
M  END
>  <minimizedAffinity>
-0.89577

>  <minimizedRMSD>
2.37076

$$$$
ChemDiv-K288-0445 MCULE-7141523591 MolPort-007-915-756 PubChem-4689556 ZINC000003043831


 32 34  0  0  0  0  0  0  0  0999 V2000
   17.3202  -10.0067   11.2836 C   0  0  0  0  0  0  0  0  0  0  0  0
   18.2809  -10.1698   12.3285 N   0  0  0  0  0  0  0  0  0  0  0  0
   16.6607  -10.9937   10.8615 O   0  0  0  0  0  0  0  0  0  0  0  0
   18.8203   -9.3915   12.5977 H   0  0  0  0  0  0  0  0  0  0  0  0
   17.0435   -8.6460   10.7284 C   0  0  0  0  0  0  0  0  0  0  0  0
   17.8882   -8.3721    9.5604 N   0  0  0  0  0  0  0  0  0  0  0  0
   17.3914   -8.6184    8.3061 C   0  0  0  0  0  0  0  0  0  0  0  0
   16.2153   -9.0595    8.1621 O   0  0  0  0  0  0  0  0  0  0  0  0
   18.1886   -8.3817    7.1780 C   0  0  0  0  0  0  0  0  0  0  0  0
   17.7212   -8.6169    5.8755 C   0  0  0  0  0  0  0  0  0  0  0  0
   18.5519   -8.3682    4.7776 C   0  0  0  0  0  0  0  0  0  0  0  0
   19.8505   -7.8856    4.9744 C   0  0  0  0  0  0  0  0  0  0  0  0
   20.3212   -7.6482    6.2700 C   0  0  0  0  0  0  0  0  0  0  0  0
   19.4938   -7.8944    7.3713 C   0  0  0  0  0  0  0  0  0  0  0  0
   19.9463   -7.6611    8.6269 N   0  0  0  0  0  0  0  0  0  0  0  0
   19.1667   -7.8897    9.7161 C   0  0  0  0  0  0  0  0  0  0  0  0
   19.7983   -7.5746   11.2004 S   0  0  0  0  0  0  0  0  0  0  0  0
   20.8605   -7.3181    8.7529 H   0  0  0  0  0  0  0  0  0  0  0  0
   18.4969  -11.4352   13.0118 C   0  0  0  0  0  0  0  0  0  0  0  0
   19.0259  -11.1767   14.4173 C   0  0  0  0  0  0  0  0  0  0  0  0
   18.0319  -10.4264   15.2436 C   0  0  0  0  0  0  0  0  0  0  0  0
   16.6566  -10.5844   15.0239 C   0  0  0  0  0  0  0  0  0  0  0  0
   15.7368   -9.8559   15.7853 C   0  0  0  0  0  0  0  0  0  0  0  0
   16.1883   -8.9685   16.7691 C   0  0  0  0  0  0  0  0  0  0  0  0
   17.5622   -8.8177   16.9945 C   0  0  0  0  0  0  0  0  0  0  0  0
   18.4825   -9.5458   16.2335 C   0  0  0  0  0  0  0  0  0  0  0  0
   15.0411   -8.0480   17.7241 S   0  0  0  0  0  0  0  0  0  0  0  0
   13.6415   -9.0076   18.0500 N   0  0  0  0  0  0  0  0  0  0  0  0
   15.6765   -7.6510   19.0264 O   0  0  0  0  0  0  0  0  0  0  0  0
   14.6290   -6.8183   16.9662 O   0  0  0  0  0  0  0  0  0  0  0  0
   13.9154   -9.8444   18.5648 H   0  0  0  0  0  0  0  0  0  0  0  0
   13.2024   -9.2782   17.1701 H   0  0  0  0  0  0  0  0  0  0  0  0
  6  5  1  0  0  0
  5  1  1  0  0  0
  1  2  1  0  0  0
  2 19  1  0  0  0
 19 20  1  0  0  0
 20 21  1  0  0  0
 21 22  2  0  0  0
 22 23  1  0  0  0
 23 24  2  0  0  0
 24 25  1  0  0  0
 25 26  2  0  0  0
 24 27  1  0  0  0
 27 28  1  0  0  0
 27 29  2  0  0  0
 27 30  2  0  0  0
  1  3  2  0  0  0
  6  7  1  0  0  0
  7  8  2  0  0  0
  7  9  1  0  0  0
  9 10  2  0  0  0
 10 11  1  0  0  0
 11 12  2  0  0  0
 12 13  1  0  0  0
 13 14  2  0  0  0
 14 15  1  0  0  0
 15 16  1  0  0  0
 16 17  2  0  0  0
 16  6  1  0  0  0
 26 21  1  0  0  0
 14  9  1  0  0  0
  2  4  1  0  0  0
 28 31  1  0  0  0
 28 32  1  0  0  0
 15 18  1  0  0  0
M  END
>  <minimizedAffinity>
-0.79611

>  <minimizedRMSD>
2.44279

$$$$
ChemDiv-L466-0075 MCULE-4074747447 MolPort-010-869-347 PubChem-53112175 ZINC000065031443 ZINC65031443


 32 36  0  0  0  0  0  0  0  0999 V2000
   15.1250   -8.9252   16.1825 O   0  0  0  0  0  0  0  0  0  0  0  0
   15.4715   -8.9479   14.8257 C   0  0  0  0  0  0  0  0  0  0  0  0
   16.0943   -7.8536   14.2059 C   0  0  0  0  0  0  0  0  0  0  0  0
   16.4571   -7.9191   12.8588 C   0  0  0  0  0  0  0  0  0  0  0  0
   16.2031   -9.0767   12.1095 C   0  0  0  0  0  0  0  0  0  0  0  0
   15.5686  -10.1643   12.7303 C   0  0  0  0  0  0  0  0  0  0  0  0
   15.2040  -10.0981   14.0774 C   0  0  0  0  0  0  0  0  0  0  0  0
   16.6153   -9.1459   10.6923 C   0  0  0  0  0  0  0  0  0  0  0  0
   16.0260  -10.0664    9.8114 C   0  0  0  0  0  0  0  0  0  0  0  0
   16.4340  -10.1235    8.5159 N   0  0  0  0  0  0  0  0  0  0  0  0
   17.4111   -9.3017    8.0543 C   0  0  0  0  0  0  0  0  0  0  0  0
   17.8270   -9.3688    6.7222 C   0  0  0  0  0  0  0  0  0  0  0  0
   18.8364   -8.5149    6.2651 C   0  0  0  0  0  0  0  0  0  0  0  0
   19.4293   -7.5952    7.1381 C   0  0  0  0  0  0  0  0  0  0  0  0
   19.0152   -7.5241    8.4722 C   0  0  0  0  0  0  0  0  0  0  0  0
   18.0068   -8.3746    8.9322 C   0  0  0  0  0  0  0  0  0  0  0  0
   17.5939   -8.3206   10.2246 N   0  0  0  0  0  0  0  0  0  0  0  0
   15.9359   -8.3273   17.1925 C   0  0  0  0  0  0  0  0  0  0  0  0
   18.2974   -8.6118   17.2985 O   0  0  0  0  0  0  0  0  0  0  0  0
   17.1629   -9.1447   17.4195 C   0  0  0  0  0  0  0  0  0  0  0  0
   17.0418  -10.5311   17.7404 N   0  0  0  0  0  0  0  0  0  0  0  0
   16.1966  -10.8588   18.1244 H   0  0  0  0  0  0  0  0  0  0  0  0
   18.1267  -11.4751   17.5185 C   0  0  0  0  0  0  0  0  0  0  0  0
   18.3429  -11.6532   16.0535 C   0  0  0  0  0  0  0  0  0  0  0  0
   18.0547  -12.8976   15.4473 C   0  0  0  0  0  0  0  0  0  0  0  0
   18.2139  -13.0720   14.0607 C   0  0  0  0  0  0  0  0  0  0  0  0
   18.6566  -11.9776   13.3232 C   0  0  0  0  0  0  0  0  0  0  0  0
   18.8912  -11.8969   11.9652 O   0  0  0  0  0  0  0  0  0  0  0  0
   19.3414  -10.5671   11.6707 C   0  0  0  0  0  0  0  0  0  0  0  0
   19.3419   -9.8860   12.9339 O   0  0  0  0  0  0  0  0  0  0  0  0
   18.9271  -10.7791   13.9013 C   0  0  0  0  0  0  0  0  0  0  0  0
   18.7806  -10.5678   15.2703 C   0  0  0  0  0  0  0  0  0  0  0  0
 19 20  2  0  0  0
 20 18  1  0  0  0
 20 21  1  0  0  0
 18  1  1  0  0  0
  1  2  1  0  0  0
  2  3  2  0  0  0
  3  4  1  0  0  0
  4  5  2  0  0  0
  5  6  1  0  0  0
  5  8  1  0  0  0
  6  7  2  0  0  0
  7  2  1  0  0  0
  8  9  2  0  0  0
  9 10  1  0  0  0
 10 11  2  0  0  0
 11 12  1  0  0  0
 12 13  2  0  0  0
 13 14  1  0  0  0
 14 15  2  0  0  0
 15 16  1  0  0  0
 16 17  2  0  0  0
 16 11  1  0  0  0
 17  8  1  0  0  0
 21 23  1  0  0  0
 23 24  1  0  0  0
 24 25  2  0  0  0
 25 26  1  0  0  0
 26 27  2  0  0  0
 27 28  1  0  0  0
 28 29  1  0  0  0
 29 30  1  0  0  0
 30 31  1  0  0  0
 31 32  2  0  0  0
 31 27  1  0  0  0
 32 24  1  0  0  0
 21 22  1  0  0  0
M  END
>  <minimizedAffinity>
-0.69878

>  <minimizedRMSD>
1.44204

$$$$
ChemDiv-C679-5376 MCULE-1341767863 MolPort-010-797-216 PubChem-52098570 ZINC000041085731 ZINC41085731


 31 34  0  0  0  0  0  0  0  0999 V2000
   17.4799  -10.3168   14.6310 C   0  0  0  0  0  0  0  0  0  0  0  0
   18.1589  -11.4684   15.0596 C   0  0  0  0  0  0  0  0  0  0  0  0
   18.1135  -11.8525   16.4019 C   0  0  0  0  0  0  0  0  0  0  0  0
   17.3903  -11.0897   17.3226 C   0  0  0  0  0  0  0  0  0  0  0  0
   16.7063   -9.9420   16.9091 C   0  0  0  0  0  0  0  0  0  0  0  0
   16.7577   -9.5607   15.5595 C   0  0  0  0  0  0  0  0  0  0  0  0
   15.9815   -9.1816   17.8851 N   0  0  0  0  0  0  0  0  0  0  0  0
   15.2129   -7.9950   17.6480 C   0  0  0  0  0  0  0  0  0  0  0  0
   15.0642   -7.5331   16.4859 O   0  0  0  0  0  0  0  0  0  0  0  0
   16.0153   -9.5079   18.8133 H   0  0  0  0  0  0  0  0  0  0  0  0
   14.5847   -7.2888   18.8002 C   0  0  0  0  0  0  0  0  0  0  0  0
   15.3259   -7.5317   19.9922 O   0  0  0  0  0  0  0  0  0  0  0  0
   16.6321   -7.0718   20.1930 C   0  0  0  0  0  0  0  0  0  0  0  0
   16.9341   -6.3874   21.3754 C   0  0  0  0  0  0  0  0  0  0  0  0
   18.2294   -5.9149   21.6069 C   0  0  0  0  0  0  0  0  0  0  0  0
   19.2307   -6.1240   20.6544 C   0  0  0  0  0  0  0  0  0  0  0  0
   18.9371   -6.8044   19.4695 C   0  0  0  0  0  0  0  0  0  0  0  0
   17.6422   -7.2767   19.2381 C   0  0  0  0  0  0  0  0  0  0  0  0
   17.5066   -9.9034   13.2967 O   0  0  0  0  0  0  0  0  0  0  0  0
   18.0919  -10.6836   12.2626 C   0  0  0  0  0  0  0  0  0  0  0  0
   16.7252   -7.6708    6.4772 C   0  0  0  0  0  0  0  0  0  0  0  0
   17.8255   -7.8299    7.4722 C   0  0  0  0  0  0  0  0  0  0  0  0
   19.0556   -7.1909    7.2902 C   0  0  0  0  0  0  0  0  0  0  0  0
   20.0378   -7.5987    8.6069 S   0  0  0  0  0  0  0  0  0  0  0  0
   18.8693   -8.5512    9.3296 C   0  0  0  0  0  0  0  0  0  0  0  0
   19.0056   -9.2234   10.4987 N   0  0  0  0  0  0  0  0  0  0  0  0
   17.9660   -9.9668   10.9663 C   0  0  0  0  0  0  0  0  0  0  0  0
   16.7616  -10.0222   10.2525 C   0  0  0  0  0  0  0  0  0  0  0  0
   16.6553   -9.3154    9.0500 C   0  0  0  0  0  0  0  0  0  0  0  0
   15.5779   -9.3604    8.3988 O   0  0  0  0  0  0  0  0  0  0  0  0
   17.7260   -8.5863    8.6097 N   0  0  0  0  0  0  0  0  0  0  0  0
 21 22  1  0  0  0
 22 23  2  0  0  0
 23 24  1  0  0  0
 24 25  1  0  0  0
 25 26  2  0  0  0
 26 27  1  0  0  0
 27 20  1  0  0  0
 27 28  2  0  0  0
 20 19  1  0  0  0
 19  1  1  0  0  0
  1  2  2  0  0  0
  2  3  1  0  0  0
  3  4  2  0  0  0
  4  5  1  0  0  0
  5  7  1  0  0  0
  5  6  2  0  0  0
  7  8  1  0  0  0
  8  9  2  0  0  0
  8 11  1  0  0  0
 11 12  1  0  0  0
 12 13  1  0  0  0
 13 14  2  0  0  0
 14 15  1  0  0  0
 15 16  2  0  0  0
 16 17  1  0  0  0
 17 18  2  0  0  0
 18 13  1  0  0  0
  6  1  1  0  0  0
 28 29  1  0  0  0
 29 30  2  0  0  0
 29 31  1  0  0  0
 31 22  1  0  0  0
 31 25  1  0  0  0
  7 10  1  0  0  0
M  END
>  <minimizedAffinity>
-0.68553

>  <minimizedRMSD>
1.68684

$$$$
ChemDiv-F874-0393 MCULE-1212556607 MolPort-010-833-520 PubChem-53078484 ZINC000085650063 ZINC85650063


 34 37  0  0  0  0  0  0  0  0999 V2000
   16.9948   -8.8019   15.2749 S   0  0  0  0  0  0  0  0  0  0  0  0
   18.4337   -9.0780   15.6135 O   0  0  0  0  0  0  0  0  0  0  0  0
   16.9471   -7.7341   14.2170 O   0  0  0  0  0  0  0  0  0  0  0  0
   14.8377   -7.3374   19.0196 C   0  0  0  0  0  0  0  0  0  0  0  0
   16.1845   -7.7109   19.0797 C   0  0  0  0  0  0  0  0  0  0  0  0
   16.8476   -8.1560   17.9324 C   0  0  0  0  0  0  0  0  0  0  0  0
   16.1684   -8.2255   16.7124 C   0  0  0  0  0  0  0  0  0  0  0  0
   14.8219   -7.8536   16.6456 C   0  0  0  0  0  0  0  0  0  0  0  0
   14.1597   -7.4105   17.7936 C   0  0  0  0  0  0  0  0  0  0  0  0
   13.2751   -5.7862   20.3324 C   0  0  0  0  0  0  0  0  0  0  0  0
   12.8903   -5.1484   19.3168 O   0  0  0  0  0  0  0  0  0  0  0  0
   14.1942   -6.8811   20.2168 N   0  0  0  0  0  0  0  0  0  0  0  0
   14.4050   -7.3698   21.0450 H   0  0  0  0  0  0  0  0  0  0  0  0
   12.7363   -5.4101   21.6725 C   0  0  0  0  0  0  0  0  0  0  0  0
   14.6628   -5.0089   23.2062 C   0  0  0  0  0  0  0  0  0  0  0  0
   13.6049   -4.3538   22.3385 C   0  0  0  0  0  0  0  0  0  0  0  0
   12.7363   -3.4680   23.2062 C   0  0  0  0  0  0  0  0  0  0  0  0
   16.2348  -10.2655   14.7159 N   0  0  0  0  0  0  0  0  0  0  0  0
   15.6507  -10.0522   13.3797 C   0  0  0  0  0  0  0  0  0  0  0  0
   16.4469  -10.7113   12.2541 C   0  0  0  0  0  0  0  0  0  0  0  0
   17.8671  -10.5674   12.5331 N   0  0  0  0  0  0  0  0  0  0  0  0
   18.2158  -11.4332   13.6595 C   0  0  0  0  0  0  0  0  0  0  0  0
   17.1725  -11.3986   14.7947 C   0  0  0  0  0  0  0  0  0  0  0  0
   18.5901  -11.0623   11.3732 C   0  0  0  0  0  0  0  0  0  0  0  0
   18.4389  -10.1225   10.2200 C   0  0  0  0  0  0  0  0  0  0  0  0
   17.3518  -10.1330    9.4041 N   0  0  0  0  0  0  0  0  0  0  0  0
   17.6466   -9.1499    8.5368 C   0  0  0  0  0  0  0  0  0  0  0  0
   16.8851   -8.7054    7.4595 C   0  0  0  0  0  0  0  0  0  0  0  0
   17.4121   -7.6520    6.6879 C   0  0  0  0  0  0  0  0  0  0  0  0
   18.6652   -7.0804    7.0084 C   0  0  0  0  0  0  0  0  0  0  0  0
   19.2036   -5.9707    6.1798 C   0  0  0  0  0  0  0  0  0  0  0  0
   19.4076   -7.5564    8.1059 C   0  0  0  0  0  0  0  0  0  0  0  0
   18.8537   -8.5983    8.8437 C   0  0  0  0  0  0  0  0  0  0  0  0
   19.3389   -9.2080    9.8903 O   0  0  0  0  0  0  0  0  0  0  0  0
 15 16  1  0  0  0
 16 17  1  0  0  0
 16 14  1  0  0  0
 14 10  1  0  0  0
 10 11  2  0  0  0
 10 12  1  0  0  0
 12  4  1  0  0  0
  4  5  2  0  0  0
  5  6  1  0  0  0
  6  7  2  0  0  0
  7  8  1  0  0  0
  7  1  1  0  0  0
  8  9  2  0  0  0
  9  4  1  0  0  0
  1  2  2  0  0  0
  1  3  2  0  0  0
  1 18  1  0  0  0
 18 19  1  0  0  0
 19 20  1  0  0  0
 20 21  1  0  0  0
 21 24  1  0  0  0
 21 22  1  0  0  0
 24 25  1  0  0  0
 25 26  2  0  0  0
 26 27  1  0  0  0
 27 28  2  0  0  0
 28 29  1  0  0  0
 29 30  2  0  0  0
 30 31  1  0  0  0
 30 32  1  0  0  0
 32 33  2  0  0  0
 33 34  1  0  0  0
 33 27  1  0  0  0
 34 25  1  0  0  0
 22 23  1  0  0  0
 23 18  1  0  0  0
 12 13  1  0  0  0
M  END
>  <minimizedAffinity>
-0.66880

>  <minimizedRMSD>
3.24785

$$$$
ChemDiv-G024-1411 MolPort-010-838-904 PubChem-53083453 ZINC64951368


 34 37  0  0  0  0  0  0  0  0999 V2000
   17.3115   -8.7956    9.7007 N   0  0  0  0  0  0  0  0  0  0  0  0
   18.6028   -8.4490    9.6801 N   0  0  0  0  0  0  0  0  0  0  0  0
   18.9387   -8.1885    8.4029 C   0  0  0  0  0  0  0  0  0  0  0  0
   20.1596   -7.8320    7.9309 N   0  0  0  0  0  0  0  0  0  0  0  0
   20.3059   -7.6232    6.5866 C   0  0  0  0  0  0  0  0  0  0  0  0
   19.2082   -7.7816    5.7070 C   0  0  0  0  0  0  0  0  0  0  0  0
   17.9496   -8.1606    6.2103 C   0  0  0  0  0  0  0  0  0  0  0  0
   17.8607   -8.3564    7.5832 C   0  0  0  0  0  0  0  0  0  0  0  0
   16.8428   -8.7425    8.4242 C   0  0  0  0  0  0  0  0  0  0  0  0
   15.6588   -8.9998    8.0768 O   0  0  0  0  0  0  0  0  0  0  0  0
   15.9587   -8.8450   13.2052 C   0  0  0  0  0  0  0  0  0  0  0  0
   15.0642   -9.9191   13.1316 C   0  0  0  0  0  0  0  0  0  0  0  0
   14.9174  -10.6265   11.9367 C   0  0  0  0  0  0  0  0  0  0  0  0
   15.6601  -10.2582   10.8121 C   0  0  0  0  0  0  0  0  0  0  0  0
   16.5581   -9.1806   10.8697 C   0  0  0  0  0  0  0  0  0  0  0  0
   16.6936   -8.4743   12.0749 C   0  0  0  0  0  0  0  0  0  0  0  0
   15.6048   -8.8704   15.6548 C   0  0  0  0  0  0  0  0  0  0  0  0
   16.1068   -8.0675   14.4688 C   0  0  0  0  0  0  0  0  0  0  0  0
   19.5334   -8.4843   10.8050 C   0  0  0  0  0  0  0  0  0  0  0  0
   19.3438   -9.7319   11.6002 C   0  0  0  0  0  0  0  0  0  0  0  0
   19.2615  -10.8447   11.0139 O   0  0  0  0  0  0  0  0  0  0  0  0
   19.3091   -9.6455   13.0291 N   0  0  0  0  0  0  0  0  0  0  0  0
   19.6019   -8.7952   13.4297 H   0  0  0  0  0  0  0  0  0  0  0  0
   18.8891  -10.6772   13.9350 C   0  0  0  0  0  0  0  0  0  0  0  0
   18.8482  -10.4359   15.3318 C   0  0  0  0  0  0  0  0  0  0  0  0
   18.3858  -11.4514   16.1836 C   0  0  0  0  0  0  0  0  0  0  0  0
   17.9696  -12.6824   15.6758 C   0  0  0  0  0  0  0  0  0  0  0  0
   18.0088  -12.9173   14.3030 C   0  0  0  0  0  0  0  0  0  0  0  0
   18.4623  -11.9200   13.4400 C   0  0  0  0  0  0  0  0  0  0  0  0
   19.2877   -9.1566   15.9424 C   0  0  0  0  0  0  0  0  0  0  0  0
   18.5594   -8.5974   17.0323 N   0  0  0  0  0  0  0  0  0  0  0  0
   20.3074   -8.5495   15.5210 O   0  0  0  0  0  0  0  0  0  0  0  0
   17.7594   -9.0563   17.3768 H   0  0  0  0  0  0  0  0  0  0  0  0
   18.8563   -7.7522   17.4408 H   0  0  0  0  0  0  0  0  0  0  0  0
 17 18  1  0  0  0
 18 11  1  0  0  0
 11 12  2  0  0  0
 12 13  1  0  0  0
 13 14  2  0  0  0
 14 15  1  0  0  0
 15 16  2  0  0  0
 15  1  1  0  0  0
 16 11  1  0  0  0
  1  2  1  0  0  0
  2 19  1  0  0  0
  2  3  1  0  0  0
 19 20  1  0  0  0
 20 21  2  0  0  0
 20 22  1  0  0  0
 22 24  1  0  0  0
 24 25  2  0  0  0
 25 26  1  0  0  0
 25 30  1  0  0  0
 26 27  2  0  0  0
 27 28  1  0  0  0
 28 29  2  0  0  0
 29 24  1  0  0  0
 30 31  1  0  0  0
 30 32  2  0  0  0
  3  4  2  0  0  0
  4  5  1  0  0  0
  5  6  2  0  0  0
  6  7  1  0  0  0
  7  8  2  0  0  0
  8  9  1  0  0  0
  8  3  1  0  0  0
  9 10  2  0  0  0
  9  1  1  0  0  0
 22 23  1  0  0  0
 31 33  1  0  0  0
 31 34  1  0  0  0
M  END
>  <minimizedAffinity>
-0.49970

>  <minimizedRMSD>
2.25846

$$$$
ChemDiv-F556-0076 MCULE-9840894860 MolPort-007-803-466 PubChem-46321796 ZINC000032996666


 30 33  0  0  0  0  0  0  0  0999 V2000
   17.4500  -11.1920   11.5347 C   0  0  0  0  0  0  0  0  0  0  0  0
   17.3240  -12.4243   11.2993 O   0  0  0  0  0  0  0  0  0  0  0  0
   17.9450  -10.7630   12.8128 N   0  0  0  0  0  0  0  0  0  0  0  0
   17.5064   -9.4846   13.3862 C   0  0  0  0  0  0  0  0  0  0  0  0
   18.0627   -9.2955   14.7940 C   0  0  0  0  0  0  0  0  0  0  0  0
   17.8437  -10.5157   15.5710 N   0  0  0  0  0  0  0  0  0  0  0  0
   18.2489  -11.8111   15.0135 C   0  0  0  0  0  0  0  0  0  0  0  0
   18.7946  -11.6664   13.5917 C   0  0  0  0  0  0  0  0  0  0  0  0
   17.2885  -10.4685   16.8982 C   0  0  0  0  0  0  0  0  0  0  0  0
   17.5665  -11.3932   17.7107 O   0  0  0  0  0  0  0  0  0  0  0  0
   17.0494  -10.2288   10.4902 C   0  0  0  0  0  0  0  0  0  0  0  0
   17.9148   -9.2643    9.9143 C   0  0  0  0  0  0  0  0  0  0  0  0
   19.2706   -9.0621   10.1949 C   0  0  0  0  0  0  0  0  0  0  0  0
   19.9666   -8.0625    9.4934 C   0  0  0  0  0  0  0  0  0  0  0  0
   19.3132   -7.2863    8.5159 C   0  0  0  0  0  0  0  0  0  0  0  0
   17.9581   -7.5037    8.2231 C   0  0  0  0  0  0  0  0  0  0  0  0
   17.2991   -8.4973    8.9392 C   0  0  0  0  0  0  0  0  0  0  0  0
   15.7385   -9.0497    8.8176 S   0  0  0  0  0  0  0  0  0  0  0  0
   15.7882  -10.2520    9.9725 N   0  0  0  0  0  0  0  0  0  0  0  0
   16.3908   -9.3767   17.3447 C   0  0  0  0  0  0  0  0  0  0  0  0
   15.5183   -8.7387   16.4515 C   0  0  0  0  0  0  0  0  0  0  0  0
   14.6583   -7.7312   16.8960 C   0  0  0  0  0  0  0  0  0  0  0  0
   14.6511   -7.3499   18.2452 C   0  0  0  0  0  0  0  0  0  0  0  0
   15.5100   -7.9936   19.1408 C   0  0  0  0  0  0  0  0  0  0  0  0
   16.3704   -9.0013   18.6959 C   0  0  0  0  0  0  0  0  0  0  0  0
   13.7839   -6.3200   18.7392 N   0  0  0  0  0  0  0  0  0  0  0  0
   13.6708   -5.8725   20.0960 C   0  0  0  0  0  0  0  0  0  0  0  0
   12.7133   -4.7852   20.4253 C   0  0  0  0  0  0  0  0  0  0  0  0
   14.3658   -6.3819   21.0142 O   0  0  0  0  0  0  0  0  0  0  0  0
   13.2065   -5.8745   18.0779 H   0  0  0  0  0  0  0  0  0  0  0  0
 11 12  1  0  0  0
 12 13  2  0  0  0
 13 14  1  0  0  0
 14 15  2  0  0  0
 15 16  1  0  0  0
 16 17  2  0  0  0
 17 18  1  0  0  0
 18 19  1  0  0  0
 11  1  1  0  0  0
  1  2  2  0  0  0
  1  3  1  0  0  0
  3  4  1  0  0  0
  4  5  1  0  0  0
  5  6  1  0  0  0
  6  7  1  0  0  0
  7  8  1  0  0  0
  6  9  1  0  0  0
  9 10  2  0  0  0
  9 20  1  0  0  0
 20 21  2  0  0  0
 21 22  1  0  0  0
 22 23  2  0  0  0
 23 24  1  0  0  0
 24 25  2  0  0  0
 23 26  1  0  0  0
 26 27  1  0  0  0
 27 28  1  0  0  0
 27 29  2  0  0  0
 19 11  2  0  0  0
  8  3  1  0  0  0
 25 20  1  0  0  0
 17 12  1  0  0  0
 26 30  1  0  0  0
M  END
>  <minimizedAffinity>
-0.29385

>  <minimizedRMSD>
2.72072

$$$$
ChemDiv-L078-0338 MCULE-8064545058 MolPort-010-655-973 PubChem-50818933 ZINC000033273233


 33 37  0  0  0  0  0  0  0  0999 V2000
   18.0814  -10.4041   13.8310 N   0  0  0  0  0  0  0  0  0  0  0  0
   18.8927  -10.1482   15.0304 C   0  0  0  0  0  0  0  0  0  0  0  0
   18.1767   -9.2613   16.0499 C   0  0  0  0  0  0  0  0  0  0  0  0
   16.8340   -9.8743   16.4198 C   0  0  0  0  0  0  0  0  0  0  0  0
   15.9959  -10.0758   15.1663 C   0  0  0  0  0  0  0  0  0  0  0  0
   16.7547  -10.9448   14.1629 C   0  0  0  0  0  0  0  0  0  0  0  0
   16.1128   -8.9974   17.3881 C   0  0  0  0  0  0  0  0  0  0  0  0
   16.5927   -8.7033   18.6156 N   0  0  0  0  0  0  0  0  0  0  0  0
   15.7900   -7.9059   19.3188 N   0  0  0  0  0  0  0  0  0  0  0  0
   14.6639   -7.5588   18.6565 C   0  0  0  0  0  0  0  0  0  0  0  0
   14.6216   -8.2528   17.1207 S   0  0  0  0  0  0  0  0  0  0  0  0
   13.6266   -6.6899   19.2210 C   0  0  0  0  0  0  0  0  0  0  0  0
   12.9203   -5.9830   18.4532 O   0  0  0  0  0  0  0  0  0  0  0  0
   13.4311   -6.6577   20.6417 N   0  0  0  0  0  0  0  0  0  0  0  0
   14.0187   -7.2353   21.1806 H   0  0  0  0  0  0  0  0  0  0  0  0
   12.4695   -5.8722   21.3592 C   0  0  0  0  0  0  0  0  0  0  0  0
   11.4995   -5.1004   20.7008 C   0  0  0  0  0  0  0  0  0  0  0  0
   10.5781   -4.3471   21.4342 C   0  0  0  0  0  0  0  0  0  0  0  0
   10.6200   -4.3602   22.8308 C   0  0  0  0  0  0  0  0  0  0  0  0
   11.5830   -5.1264   23.4930 C   0  0  0  0  0  0  0  0  0  0  0  0
   12.5040   -5.8794   22.7583 C   0  0  0  0  0  0  0  0  0  0  0  0
   17.9650   -8.9812   12.8286 S   0  0  0  0  0  0  0  0  0  0  0  0
   19.3199   -8.3374   12.7272 O   0  0  0  0  0  0  0  0  0  0  0  0
   17.0096   -7.9806   13.4191 O   0  0  0  0  0  0  0  0  0  0  0  0
   17.4318   -9.4361   11.2104 C   0  0  0  0  0  0  0  0  0  0  0  0
   18.3632   -9.4458   10.1616 C   0  0  0  0  0  0  0  0  0  0  0  0
   17.9837   -9.8151    8.8628 C   0  0  0  0  0  0  0  0  0  0  0  0
   16.6635  -10.1870    8.5851 C   0  0  0  0  0  0  0  0  0  0  0  0
   15.7266  -10.1867    9.6169 C   0  0  0  0  0  0  0  0  0  0  0  0
   14.4315  -10.5393    9.4250 N   0  0  0  0  0  0  0  0  0  0  0  0
   13.8486  -10.3495   10.9610 S   0  0  0  0  0  0  0  0  0  0  0  0
   15.1276   -9.8444   11.8788 N   0  0  0  0  0  0  0  0  0  0  0  0
   16.1060   -9.8110   10.9381 C   0  0  0  0  0  0  0  0  0  0  0  0
 22 23  2  0  0  0
 22 24  2  0  0  0
 22  1  1  0  0  0
  1  2  1  0  0  0
  2  3  1  0  0  0
  3  4  1  0  0  0
  4  5  1  0  0  0
  5  6  1  0  0  0
  4  7  1  0  0  0
  7  8  2  0  0  0
  8  9  1  0  0  0
  9 10  2  0  0  0
 10 12  1  0  0  0
 12 13  2  0  0  0
 12 14  1  0  0  0
 14 16  1  0  0  0
 16 17  2  0  0  0
 17 18  1  0  0  0
 18 19  2  0  0  0
 19 20  1  0  0  0
 20 21  2  0  0  0
 10 11  1  0  0  0
 22 25  1  0  0  0
 25 26  2  0  0  0
 26 27  1  0  0  0
 27 28  2  0  0  0
 28 29  1  0  0  0
 29 30  2  0  0  0
 30 31  1  0  0  0
 31 32  1  0  0  0
 32 33  2  0  0  0
  6  1  1  0  0  0
 11  7  1  0  0  0
 33 25  1  0  0  0
 21 16  1  0  0  0
 33 29  1  0  0  0
 14 15  1  0  0  0
M  END
>  <minimizedAffinity>
-0.26332

>  <minimizedRMSD>
3.35362

$$$$
ChemDiv-D549-0289 MCULE-6577558851 MolPort-010-800-731 PubChem-53046664


 35 39  0  0  0  0  0  0  0  0999 V2000
   16.0399   -9.7355   12.2252 C   0  0  0  0  0  0  0  0  0  0  0  0
   14.7082   -9.6136   12.3859 N   0  0  0  0  0  0  0  0  0  0  0  0
   14.4457   -9.8578   13.6605 N   0  0  0  0  0  0  0  0  0  0  0  0
   15.6203  -10.1246   14.2598 C   0  0  0  0  0  0  0  0  0  0  0  0
   16.6495  -10.0638   13.3878 N   0  0  0  0  0  0  0  0  0  0  0  0
   16.7070   -9.5044   10.9327 C   0  0  0  0  0  0  0  0  0  0  0  0
   17.7866   -8.6462   10.6847 C   0  0  0  0  0  0  0  0  0  0  0  0
   18.3908   -7.8215   11.6778 N   0  0  0  0  0  0  0  0  0  0  0  0
   18.1491   -8.6056    9.3358 C   0  0  0  0  0  0  0  0  0  0  0  0
   17.3565   -9.4111    8.5398 C   0  0  0  0  0  0  0  0  0  0  0  0
   17.5310   -9.5039    7.1984 N   0  0  0  0  0  0  0  0  0  0  0  0
   18.5248   -8.7829    6.6025 C   0  0  0  0  0  0  0  0  0  0  0  0
   19.3587   -7.9453    7.3689 C   0  0  0  0  0  0  0  0  0  0  0  0
   19.1686   -7.8510    8.7565 C   0  0  0  0  0  0  0  0  0  0  0  0
   16.1890  -10.1815    9.4665 S   0  0  0  0  0  0  0  0  0  0  0  0
   18.1001   -7.8875   12.6161 H   0  0  0  0  0  0  0  0  0  0  0  0
   19.0989   -7.1857   11.4255 H   0  0  0  0  0  0  0  0  0  0  0  0
   18.0177  -10.4470   13.6122 C   0  0  0  0  0  0  0  0  0  0  0  0
   18.8481   -9.6702   14.4332 C   0  0  0  0  0  0  0  0  0  0  0  0
   20.1778  -10.0425   14.6494 C   0  0  0  0  0  0  0  0  0  0  0  0
   20.6873  -11.1957   14.0468 C   0  0  0  0  0  0  0  0  0  0  0  0
   19.8670  -11.9773   13.2292 C   0  0  0  0  0  0  0  0  0  0  0  0
   18.5374  -11.6052   13.0137 C   0  0  0  0  0  0  0  0  0  0  0  0
   15.7454  -10.6094   15.9831 S   0  0  0  0  0  0  0  0  0  0  0  0
   16.5425   -9.0463   16.4660 C   0  0  0  0  0  0  0  0  0  0  0  0
   15.5784   -8.1725   17.1901 C   0  0  0  0  0  0  0  0  0  0  0  0
   14.7464   -7.4898   16.5355 O   0  0  0  0  0  0  0  0  0  0  0  0
   15.6170   -8.1014   18.6167 N   0  0  0  0  0  0  0  0  0  0  0  0
   16.3323   -8.5815   19.0932 H   0  0  0  0  0  0  0  0  0  0  0  0
   14.6426   -7.3482   19.3968 C   0  0  0  0  0  0  0  0  0  0  0  0
   13.3662   -7.0976   18.5980 C   0  0  0  0  0  0  0  0  0  0  0  0
   12.2162   -7.9402   19.0945 C   0  0  0  0  0  0  0  0  0  0  0  0
   11.0434   -7.0456   18.8895 C   0  0  0  0  0  0  0  0  0  0  0  0
   11.6522   -5.6696   18.9866 C   0  0  0  0  0  0  0  0  0  0  0  0
   13.0114   -5.7345   18.6276 O   0  0  0  0  0  0  0  0  0  0  0  0
  1  2  2  0  0  0
  2  3  1  0  0  0
  3  4  2  0  0  0
  4 24  1  0  0  0
 24 25  1  0  0  0
 25 26  1  0  0  0
 26 27  2  0  0  0
 26 28  1  0  0  0
 28 30  1  0  0  0
 30 31  1  0  0  0
 31 32  1  0  0  0
 32 33  1  0  0  0
 33 34  1  0  0  0
 34 35  1  0  0  0
  4  5  1  0  0  0
  5 18  1  0  0  0
 18 19  2  0  0  0
 19 20  1  0  0  0
 20 21  2  0  0  0
 21 22  1  0  0  0
 22 23  2  0  0  0
  1  6  1  0  0  0
  6  7  2  0  0  0
  7  8  1  0  0  0
  7  9  1  0  0  0
  9 10  2  0  0  0
 10 11  1  0  0  0
 11 12  2  0  0  0
 12 13  1  0  0  0
 13 14  2  0  0  0
 10 15  1  0  0  0
  5  1  1  0  0  0
 23 18  1  0  0  0
 15  6  1  0  0  0
 35 31  1  0  0  0
 14  9  1  0  0  0
 28 29  1  0  0  0
  8 16  1  0  0  0
  8 17  1  0  0  0
M  END
>  <minimizedAffinity>
-0.09624

>  <minimizedRMSD>
1.90791

$$$$
ChemDiv-F387-0151 MCULE-4372217954 MolPort-010-814-738 PubChem-53060212 ZINC000064867536 ZINC64867536


 31 34  0  0  0  0  0  0  0  0999 V2000
   16.7983   -9.9044   12.6862 C   0  0  0  0  0  0  0  0  0  0  0  0
   15.9915   -8.8326   12.5893 N   0  0  0  0  0  0  0  0  0  0  0  0
   16.0176   -8.2940   13.7697 O   0  0  0  0  0  0  0  0  0  0  0  0
   16.8031   -8.9861   14.5604 C   0  0  0  0  0  0  0  0  0  0  0  0
   17.3428  -10.0388   13.9118 N   0  0  0  0  0  0  0  0  0  0  0  0
   17.0828   -8.6645   15.9796 C   0  0  0  0  0  0  0  0  0  0  0  0
   16.0736   -8.6069   16.9755 C   0  0  0  0  0  0  0  0  0  0  0  0
   14.6596   -8.9815   16.6549 C   0  0  0  0  0  0  0  0  0  0  0  0
   16.4239   -8.2654   18.3047 C   0  0  0  0  0  0  0  0  0  0  0  0
   17.7642   -8.0461   18.6336 C   0  0  0  0  0  0  0  0  0  0  0  0
   18.7552   -8.1154   17.6581 C   0  0  0  0  0  0  0  0  0  0  0  0
   18.4139   -8.4155   16.3415 C   0  0  0  0  0  0  0  0  0  0  0  0
   15.4549   -8.1908   19.3594 N   0  0  0  0  0  0  0  0  0  0  0  0
   14.2879   -7.3632   19.3403 C   0  0  0  0  0  0  0  0  0  0  0  0
   13.2568   -7.5263   20.3977 C   0  0  0  0  0  0  0  0  0  0  0  0
   14.1434   -6.4711   18.4629 O   0  0  0  0  0  0  0  0  0  0  0  0
   15.6037   -8.7505   20.1555 H   0  0  0  0  0  0  0  0  0  0  0  0
   17.1142  -10.8063   11.5406 C   0  0  0  0  0  0  0  0  0  0  0  0
   16.1290  -10.0186    9.4293 C   0  0  0  0  0  0  0  0  0  0  0  0
   16.2024   -9.3068    8.2729 N   0  0  0  0  0  0  0  0  0  0  0  0
   17.3103   -8.5972    7.9508 C   0  0  0  0  0  0  0  0  0  0  0  0
   17.3549   -7.8708    6.7572 C   0  0  0  0  0  0  0  0  0  0  0  0
   18.4994   -7.1390    6.4263 C   0  0  0  0  0  0  0  0  0  0  0  0
   19.6013   -7.1325    7.2873 C   0  0  0  0  0  0  0  0  0  0  0  0
   19.5618   -7.8584    8.4819 C   0  0  0  0  0  0  0  0  0  0  0  0
   18.4164   -8.5945    8.8197 C   0  0  0  0  0  0  0  0  0  0  0  0
   18.3349   -9.3383   10.0046 C   0  0  0  0  0  0  0  0  0  0  0  0
   19.3159   -9.3602   10.8012 O   0  0  0  0  0  0  0  0  0  0  0  0
   17.1940  -10.0401   10.2946 N   0  0  0  0  0  0  0  0  0  0  0  0
   13.8542   -9.9096   10.3964 C   0  0  0  0  0  0  0  0  0  0  0  0
   14.8797  -10.7940    9.7143 C   0  0  0  0  0  0  0  0  0  0  0  0
 30 31  1  0  0  0
 31 19  1  0  0  0
 19 20  2  0  0  0
 20 21  1  0  0  0
 21 22  2  0  0  0
 22 23  1  0  0  0
 23 24  2  0  0  0
 24 25  1  0  0  0
 25 26  2  0  0  0
 26 27  1  0  0  0
 26 21  1  0  0  0
 27 28  2  0  0  0
 27 29  1  0  0  0
 29 18  1  0  0  0
 29 19  1  0  0  0
 18  1  1  0  0  0
  1  2  2  0  0  0
  2  3  1  0  0  0
  3  4  1  0  0  0
  4  5  2  0  0  0
  4  6  1  0  0  0
  5  1  1  0  0  0
  6  7  2  0  0  0
  7  8  1  0  0  0
  7  9  1  0  0  0
  9 13  1  0  0  0
  9 10  2  0  0  0
 13 14  1  0  0  0
 14 15  1  0  0  0
 14 16  2  0  0  0
 10 11  1  0  0  0
 11 12  2  0  0  0
 12  6  1  0  0  0
 13 17  1  0  0  0
M  END
>  <minimizedAffinity>
-0.00535

>  <minimizedRMSD>
1.71037

$$$$
ChemDiv-6434-3663 MCULE-2866381277 MolPort-002-008-020


 32 36  0  0  0  0  0  0  0  0999 V2000
   17.5082   -9.3856    9.1494 C   0  0  0  0  0  0  0  0  0  0  0  0
   18.7543   -8.7397    9.0338 C   0  0  0  0  0  0  0  0  0  0  0  0
   19.5480   -8.4748   10.1611 C   0  0  0  0  0  0  0  0  0  0  0  0
   20.7866   -7.8466   10.0301 C   0  0  0  0  0  0  0  0  0  0  0  0
   21.2464   -7.4720    8.7687 C   0  0  0  0  0  0  0  0  0  0  0  0
   20.4612   -7.7137    7.6408 C   0  0  0  0  0  0  0  0  0  0  0  0
   19.2042   -8.3315    7.7537 C   0  0  0  0  0  0  0  0  0  0  0  0
   18.3802   -8.5709    6.6284 C   0  0  0  0  0  0  0  0  0  0  0  0
   17.1870   -9.1948    6.8235 N   0  0  0  0  0  0  0  0  0  0  0  0
   16.7675   -9.5798    8.0276 N   0  0  0  0  0  0  0  0  0  0  0  0
   16.9888   -9.8343   10.4137 N   0  0  0  0  0  0  0  0  0  0  0  0
   15.5754  -10.2008   10.5049 C   0  0  0  0  0  0  0  0  0  0  0  0
   15.0084   -9.7594   11.8532 C   0  0  0  0  0  0  0  0  0  0  0  0
   15.9149  -10.1014   12.9544 N   0  0  0  0  0  0  0  0  0  0  0  0
   17.1626  -10.8163   12.6824 C   0  0  0  0  0  0  0  0  0  0  0  0
   17.8999  -10.1547   11.5197 C   0  0  0  0  0  0  0  0  0  0  0  0
   15.5511   -9.7654   14.3024 C   0  0  0  0  0  0  0  0  0  0  0  0
   14.4438   -9.2126   14.5404 O   0  0  0  0  0  0  0  0  0  0  0  0
   16.4805  -10.0317   15.4427 C   0  0  0  0  0  0  0  0  0  0  0  0
   17.3267   -8.4997   15.9420 S   0  0  0  0  0  0  0  0  0  0  0  0
   16.0622   -8.0662   17.1304 C   0  0  0  0  0  0  0  0  0  0  0  0
   14.9121   -7.4571   16.8041 N   0  0  0  0  0  0  0  0  0  0  0  0
   14.2470   -7.2980   17.9343 N   0  0  0  0  0  0  0  0  0  0  0  0
   15.0044   -7.8102   18.9242 C   0  0  0  0  0  0  0  0  0  0  0  0
   16.1655   -8.3056   18.4496 N   0  0  0  0  0  0  0  0  0  0  0  0
   16.9018   -8.7337   18.9435 H   0  0  0  0  0  0  0  0  0  0  0  0
   18.7367   -8.1804    5.2366 C   0  0  0  0  0  0  0  0  0  0  0  0
   18.0285   -8.7439    4.1625 C   0  0  0  0  0  0  0  0  0  0  0  0
   18.3164   -8.3755    2.8453 C   0  0  0  0  0  0  0  0  0  0  0  0
   19.3117   -7.4308    2.5863 C   0  0  0  0  0  0  0  0  0  0  0  0
   20.0155   -6.8520    3.6445 C   0  0  0  0  0  0  0  0  0  0  0  0
   19.7258   -7.2216    4.9609 C   0  0  0  0  0  0  0  0  0  0  0  0
  1  2  1  0  0  0
  2  3  2  0  0  0
  3  4  1  0  0  0
  4  5  2  0  0  0
  5  6  1  0  0  0
  6  7  2  0  0  0
  7  8  1  0  0  0
  8  9  2  0  0  0
  9 10  1  0  0  0
  8 27  1  0  0  0
 27 28  2  0  0  0
 28 29  1  0  0  0
 29 30  2  0  0  0
 30 31  1  0  0  0
 31 32  2  0  0  0
  1 11  1  0  0  0
 11 12  1  0  0  0
 12 13  1  0  0  0
 13 14  1  0  0  0
 14 15  1  0  0  0
 15 16  1  0  0  0
 14 17  1  0  0  0
 17 18  2  0  0  0
 17 19  1  0  0  0
 19 20  1  0  0  0
 20 21  1  0  0  0
 21 22  2  0  0  0
 22 23  1  0  0  0
 23 24  2  0  0  0
 24 25  1  0  0  0
 10  1  2  0  0  0
 32 27  1  0  0  0
 16 11  1  0  0  0
 25 21  1  0  0  0
  7  2  1  0  0  0
 25 26  1  0  0  0
M  END
>  <minimizedAffinity>
0.03010

>  <minimizedRMSD>
1.16010

$$$$
ChemDiv-L466-0088 MCULE-2024232471 MolPort-010-869-351 PubChem-53112179 ZINC000065031447 ZINC65031447


 29 32  0  0  0  0  0  0  0  0999 V2000
   15.5204   -8.4081   15.1971 C   0  0  0  0  0  0  0  0  0  0  0  0
   16.2010   -7.4159   14.4743 C   0  0  0  0  0  0  0  0  0  0  0  0
   16.5181   -7.6166   13.1287 C   0  0  0  0  0  0  0  0  0  0  0  0
   16.1589   -8.8089   12.4832 C   0  0  0  0  0  0  0  0  0  0  0  0
   15.4739   -9.7959   13.2094 C   0  0  0  0  0  0  0  0  0  0  0  0
   15.1575   -9.5955   14.5559 C   0  0  0  0  0  0  0  0  0  0  0  0
   16.5020   -9.0140   11.0599 C   0  0  0  0  0  0  0  0  0  0  0  0
   15.8171   -9.9594   10.2800 C   0  0  0  0  0  0  0  0  0  0  0  0
   16.1513  -10.1324    8.9737 N   0  0  0  0  0  0  0  0  0  0  0  0
   17.1438   -9.4023    8.4036 C   0  0  0  0  0  0  0  0  0  0  0  0
   17.4812   -9.5867    7.0603 C   0  0  0  0  0  0  0  0  0  0  0  0
   18.5072   -8.8253    6.4903 C   0  0  0  0  0  0  0  0  0  0  0  0
   19.1948   -7.8808    7.2615 C   0  0  0  0  0  0  0  0  0  0  0  0
   18.8599   -7.6927    8.6067 C   0  0  0  0  0  0  0  0  0  0  0  0
   17.8356   -8.4509    9.1798 C   0  0  0  0  0  0  0  0  0  0  0  0
   17.4975   -8.2822   10.4841 N   0  0  0  0  0  0  0  0  0  0  0  0
   15.1943   -8.2408   16.5478 O   0  0  0  0  0  0  0  0  0  0  0  0
   16.0161   -8.7036   17.6158 C   0  0  0  0  0  0  0  0  0  0  0  0
   16.7955  -10.6431   16.1963 N   0  0  0  0  0  0  0  0  0  0  0  0
   17.1088   -9.5706   17.0902 C   0  0  0  0  0  0  0  0  0  0  0  0
   18.2949   -9.3694   17.4639 O   0  0  0  0  0  0  0  0  0  0  0  0
   15.8513  -10.9103   16.1169 H   0  0  0  0  0  0  0  0  0  0  0  0
   19.0261   -9.2334   14.8191 C   0  0  0  0  0  0  0  0  0  0  0  0
   18.8404  -10.7119   14.7684 C   0  0  0  0  0  0  0  0  0  0  0  0
   17.7567  -11.3566   15.4081 C   0  0  0  0  0  0  0  0  0  0  0  0
   17.5733  -12.7318   15.2244 C   0  0  0  0  0  0  0  0  0  0  0  0
   18.4729  -13.4722   14.4539 C   0  0  0  0  0  0  0  0  0  0  0  0
   19.5577  -12.8380   13.8460 C   0  0  0  0  0  0  0  0  0  0  0  0
   19.7353  -11.4610   13.9974 C   0  0  0  0  0  0  0  0  0  0  0  0
 23 24  1  0  0  0
 24 25  2  0  0  0
 25 19  1  0  0  0
 25 26  1  0  0  0
 19 20  1  0  0  0
 20 21  2  0  0  0
 20 18  1  0  0  0
 18 17  1  0  0  0
 17  1  1  0  0  0
  1  2  2  0  0  0
  2  3  1  0  0  0
  3  4  2  0  0  0
  4  5  1  0  0  0
  4  7  1  0  0  0
  5  6  2  0  0  0
  6  1  1  0  0  0
  7  8  2  0  0  0
  8  9  1  0  0  0
  9 10  2  0  0  0
 10 11  1  0  0  0
 11 12  2  0  0  0
 12 13  1  0  0  0
 13 14  2  0  0  0
 14 15  1  0  0  0
 15 16  2  0  0  0
 15 10  1  0  0  0
 16  7  1  0  0  0
 26 27  2  0  0  0
 27 28  1  0  0  0
 28 29  2  0  0  0
 29 24  1  0  0  0
 19 22  1  0  0  0
M  END
>  <minimizedAffinity>
0.16405

>  <minimizedRMSD>
2.43511

$$$$
ChemDiv-8019-6554 MCULE-9889058856 MolPort-005-308-317 ZINC000015084647 ZINC15084647


 37 40  0  0  0  0  0  0  0  0999 V2000
   14.5613   -9.3122   12.1984 C   0  0  0  0  0  0  0  0  0  0  0  0
   15.9211   -8.1411   13.9704 N   0  0  0  0  0  0  0  0  0  0  0  0
   15.4012   -9.3567   13.4271 C   0  0  0  0  0  0  0  0  0  0  0  0
   15.6672  -10.4657   13.9626 O   0  0  0  0  0  0  0  0  0  0  0  0
   15.7250   -7.2963   13.5044 H   0  0  0  0  0  0  0  0  0  0  0  0
   16.7284   -8.0958   15.1826 C   0  0  0  0  0  0  0  0  0  0  0  0
   16.1272   -8.9804   16.2684 C   0  0  0  0  0  0  0  0  0  0  0  0
   13.2549   -6.7736   18.5714 C   0  0  0  0  0  0  0  0  0  0  0  0
   12.9680   -7.1342   17.2497 C   0  0  0  0  0  0  0  0  0  0  0  0
   13.9012   -7.8582   16.5022 C   0  0  0  0  0  0  0  0  0  0  0  0
   15.1230   -8.2279   17.0753 C   0  0  0  0  0  0  0  0  0  0  0  0
   15.4112   -7.8667   18.3963 C   0  0  0  0  0  0  0  0  0  0  0  0
   14.4774   -7.1431   19.1435 C   0  0  0  0  0  0  0  0  0  0  0  0
   10.5199   -6.5772   19.3216 N   0  0  0  0  0  0  0  0  0  0  0  0
   12.0847   -5.8730   19.5182 S   0  0  0  0  0  0  0  0  0  0  0  0
   12.0464   -4.4429   19.0577 O   0  0  0  0  0  0  0  0  0  0  0  0
   12.4765   -5.9083   20.9684 O   0  0  0  0  0  0  0  0  0  0  0  0
    9.8396   -6.0534   19.8722 H   0  0  0  0  0  0  0  0  0  0  0  0
   10.5407   -7.5462   19.6394 H   0  0  0  0  0  0  0  0  0  0  0  0
   15.1473  -10.5309   10.9802 S   0  0  0  0  0  0  0  0  0  0  0  0
   16.8288   -9.9240   11.0286 C   0  0  0  0  0  0  0  0  0  0  0  0
   17.4104   -9.4476    9.8894 N   0  0  0  0  0  0  0  0  0  0  0  0
   18.6824   -8.9890    9.9689 C   0  0  0  0  0  0  0  0  0  0  0  0
   19.4796   -8.4558    8.9807 C   0  0  0  0  0  0  0  0  0  0  0  0
   20.6762   -8.1515    9.6379 C   0  0  0  0  0  0  0  0  0  0  0  0
   20.5660   -8.4971   10.9466 N   0  0  0  0  0  0  0  0  0  0  0  0
   19.3552   -8.9983   11.1173 N   0  0  0  0  0  0  0  0  0  0  0  0
   18.7991   -9.4683   12.2577 C   0  0  0  0  0  0  0  0  0  0  0  0
   19.4414   -9.4731   13.3408 O   0  0  0  0  0  0  0  0  0  0  0  0
   17.5223   -9.9372   12.2083 N   0  0  0  0  0  0  0  0  0  0  0  0
   17.0963  -10.2871   13.0239 H   0  0  0  0  0  0  0  0  0  0  0  0
   19.1669   -8.2375    7.5552 C   0  0  0  0  0  0  0  0  0  0  0  0
   18.0342   -8.8233    6.9705 C   0  0  0  0  0  0  0  0  0  0  0  0
   17.7436   -8.6093    5.6201 C   0  0  0  0  0  0  0  0  0  0  0  0
   18.5834   -7.8065    4.8436 C   0  0  0  0  0  0  0  0  0  0  0  0
   19.7133   -7.2181    5.4176 C   0  0  0  0  0  0  0  0  0  0  0  0
   20.0037   -7.4329    6.7682 C   0  0  0  0  0  0  0  0  0  0  0  0
 14 15  1  0  0  0
 15 16  2  0  0  0
 15 17  2  0  0  0
 15  8  1  0  0  0
  8  9  2  0  0  0
  9 10  1  0  0  0
 10 11  2  0  0  0
 11  7  1  0  0  0
 11 12  1  0  0  0
  7  6  1  0  0  0
  6  2  1  0  0  0
  2  3  1  0  0  0
  3  4  2  0  0  0
  3  1  1  0  0  0
  1 20  1  0  0  0
 20 21  1  0  0  0
 21 22  2  0  0  0
 22 23  1  0  0  0
 23 24  2  0  0  0
 24 25  1  0  0  0
 24 32  1  0  0  0
 25 26  2  0  0  0
 26 27  1  0  0  0
 27 28  1  0  0  0
 27 23  1  0  0  0
 28 29  2  0  0  0
 28 30  1  0  0  0
 30 21  1  0  0  0
 32 33  2  0  0  0
 33 34  1  0  0  0
 34 35  2  0  0  0
 35 36  1  0  0  0
 36 37  2  0  0  0
 37 32  1  0  0  0
 12 13  2  0  0  0
 13  8  1  0  0  0
 14 18  1  0  0  0
 14 19  1  0  0  0
  2  5  1  0  0  0
 30 31  1  0  0  0
M  END
>  <minimizedAffinity>
0.20972

>  <minimizedRMSD>
4.56619

$$$$
ChemDiv-4903-2275 MCULE-4921971195 MolPort-001-911-111 PubChem-3149671


 30 32  0  0  0  0  0  0  0  0999 V2000
   17.2735   -9.7695   13.7487 C   0  0  0  0  0  0  0  0  0  0  0  0
   17.9152  -10.9704   14.1207 C   0  0  0  0  0  0  0  0  0  0  0  0
   18.0161  -11.4160   15.5394 C   0  0  0  0  0  0  0  0  0  0  0  0
   18.4684  -11.7923   13.1362 C   0  0  0  0  0  0  0  0  0  0  0  0
   18.3935  -11.4323   11.7900 C   0  0  0  0  0  0  0  0  0  0  0  0
   17.7690  -10.2385   11.4028 C   0  0  0  0  0  0  0  0  0  0  0  0
   17.2014   -9.4253   12.3938 C   0  0  0  0  0  0  0  0  0  0  0  0
   17.6361   -9.8454    9.9737 C   0  0  0  0  0  0  0  0  0  0  0  0
   18.5373   -8.9866    9.3036 C   0  0  0  0  0  0  0  0  0  0  0  0
   19.6224   -8.3899    9.9682 C   0  0  0  0  0  0  0  0  0  0  0  0
   20.4914   -7.5304    9.2972 C   0  0  0  0  0  0  0  0  0  0  0  0
   20.2838   -7.2472    7.9495 C   0  0  0  0  0  0  0  0  0  0  0  0
   19.2054   -7.8214    7.2765 C   0  0  0  0  0  0  0  0  0  0  0  0
   18.3207   -8.6918    7.9323 C   0  0  0  0  0  0  0  0  0  0  0  0
   17.2047   -9.2642    7.2765 C   0  0  0  0  0  0  0  0  0  0  0  0
   16.3707  -10.0581    7.9938 N   0  0  0  0  0  0  0  0  0  0  0  0
   16.5749  -10.3349    9.2801 N   0  0  0  0  0  0  0  0  0  0  0  0
   16.8830   -9.0618    5.9223 O   0  0  0  0  0  0  0  0  0  0  0  0
   17.7844   -8.6526    4.9033 C   0  0  0  0  0  0  0  0  0  0  0  0
   16.5143   -8.6846   14.9201 S   0  0  0  0  0  0  0  0  0  0  0  0
   17.5189   -7.7167   15.4811 O   0  0  0  0  0  0  0  0  0  0  0  0
   15.4411   -7.8952   14.2243 O   0  0  0  0  0  0  0  0  0  0  0  0
   15.7901   -9.5968   16.2035 N   0  0  0  0  0  0  0  0  0  0  0  0
   16.0101  -10.5863   16.0900 H   0  0  0  0  0  0  0  0  0  0  0  0
   16.3285   -9.1144   17.4685 C   0  0  0  0  0  0  0  0  0  0  0  0
   15.3314   -8.1919   18.1517 C   0  0  0  0  0  0  0  0  0  0  0  0
   14.8367   -7.2646   17.2345 O   0  0  0  0  0  0  0  0  0  0  0  0
   15.5695   -6.7352   16.8828 H   0  0  0  0  0  0  0  0  0  0  0  0
   16.7085  -10.2833   18.3753 C   0  0  0  0  0  0  0  0  0  0  0  0
   17.7500  -11.1930   17.7411 C   0  0  0  0  0  0  0  0  0  0  0  0
 20 21  2  0  0  0
 20 22  2  0  0  0
 20 23  1  0  0  0
 23 25  1  0  0  0
 25 29  1  0  0  0
 29 30  1  0  0  0
 25 26  1  0  0  0
 26 27  1  0  0  0
 20  1  1  0  0  0
  1  2  2  0  0  0
  2  3  1  0  0  0
  2  4  1  0  0  0
  4  5  2  0  0  0
  5  6  1  0  0  0
  6  7  2  0  0  0
  6  8  1  0  0  0
  8  9  1  0  0  0
  9 10  2  0  0  0
 10 11  1  0  0  0
 11 12  2  0  0  0
 12 13  1  0  0  0
 13 14  2  0  0  0
 14 15  1  0  0  0
 15 16  2  0  0  0
 16 17  1  0  0  0
 15 18  1  0  0  0
 18 19  1  0  0  0
  7  1  1  0  0  0
 17  8  2  0  0  0
 14  9  1  0  0  0
 23 24  1  0  0  0
 27 28  1  0  0  0
M  END
>  <minimizedAffinity>
0.43733

>  <minimizedRMSD>
2.27949

$$$$
ChemDiv-D483-1301 MCULE-5534908601 MolPort-007-710-911 PubChem-20899041 ZINC000015859203 ZINC15859203


 35 38  0  0  0  0  0  0  0  0999 V2000
   18.6595  -10.4085   13.7719 C   0  0  0  0  0  0  0  0  0  0  0  0
   18.6084  -11.3579   12.8179 N   0  0  0  0  0  0  0  0  0  0  0  0
   17.8685  -10.8716   11.8300 N   0  0  0  0  0  0  0  0  0  0  0  0
   17.4824   -9.6347   12.2007 C   0  0  0  0  0  0  0  0  0  0  0  0
   17.9662   -9.3153   13.4129 N   0  0  0  0  0  0  0  0  0  0  0  0
   17.7939   -8.0761   14.1534 C   0  0  0  0  0  0  0  0  0  0  0  0
   19.5576  -10.5931   15.3108 S   0  0  0  0  0  0  0  0  0  0  0  0
   18.3749  -11.8140   15.9516 C   0  0  0  0  0  0  0  0  0  0  0  0
   17.3558   -9.7074   16.8871 N   0  0  0  0  0  0  0  0  0  0  0  0
   17.3130  -11.1298   16.7361 C   0  0  0  0  0  0  0  0  0  0  0  0
   16.4052  -11.8113   17.2821 O   0  0  0  0  0  0  0  0  0  0  0  0
   18.1850   -9.2493   16.6189 H   0  0  0  0  0  0  0  0  0  0  0  0
   15.2629   -8.3955   16.5667 C   0  0  0  0  0  0  0  0  0  0  0  0
   14.2520   -7.5984   17.1308 C   0  0  0  0  0  0  0  0  0  0  0  0
   14.2744   -7.2780   18.4893 C   0  0  0  0  0  0  0  0  0  0  0  0
   15.3123   -7.7431   19.2971 C   0  0  0  0  0  0  0  0  0  0  0  0
   15.3525   -7.3272   20.9964 Cl  0  0  0  0  0  0  0  0  0  0  0  0
   16.3178   -8.5424   18.7502 C   0  0  0  0  0  0  0  0  0  0  0  0
   16.2908   -8.8950   17.3965 C   0  0  0  0  0  0  0  0  0  0  0  0
   14.8948   -9.9248   14.6531 C   0  0  0  0  0  0  0  0  0  0  0  0
   15.2748   -8.6666   15.1939 O   0  0  0  0  0  0  0  0  0  0  0  0
   16.6528   -8.7294   11.3477 C   0  0  0  0  0  0  0  0  0  0  0  0
   17.0257   -8.8757    9.8997 C   0  0  0  0  0  0  0  0  0  0  0  0
   16.3358   -9.7658    9.0633 C   0  0  0  0  0  0  0  0  0  0  0  0
   15.1886  -10.5764    9.5662 C   0  0  0  0  0  0  0  0  0  0  0  0
   16.7070   -9.8962    7.7660 N   0  0  0  0  0  0  0  0  0  0  0  0
   17.7389   -9.1831    7.2499 C   0  0  0  0  0  0  0  0  0  0  0  0
   18.0830   -9.3544    5.9067 C   0  0  0  0  0  0  0  0  0  0  0  0
   19.1416   -8.6235    5.3710 C   0  0  0  0  0  0  0  0  0  0  0  0
   19.8440   -7.7321    6.1787 C   0  0  0  0  0  0  0  0  0  0  0  0
   20.9744   -6.9458    5.6207 C   0  0  0  0  0  0  0  0  0  0  0  0
   19.4760   -7.5830    7.5166 C   0  0  0  0  0  0  0  0  0  0  0  0
   18.4375   -8.3002    8.0416 N   0  0  0  0  0  0  0  0  0  0  0  0
   18.0919   -8.1397    9.3567 C   0  0  0  0  0  0  0  0  0  0  0  0
   18.7266   -7.3284   10.0889 O   0  0  0  0  0  0  0  0  0  0  0  0
 20 21  1  0  0  0
 21 13  1  0  0  0
 13 14  2  0  0  0
 14 15  1  0  0  0
 15 16  2  0  0  0
 16 17  1  0  0  0
 16 18  1  0  0  0
 18 19  2  0  0  0
 19  9  1  0  0  0
 19 13  1  0  0  0
  9 10  1  0  0  0
 10 11  2  0  0  0
 10  8  1  0  0  0
  8  7  1  0  0  0
  7  1  1  0  0  0
  1  2  2  0  0  0
  2  3  1  0  0  0
  3  4  2  0  0  0
  4 22  1  0  0  0
  4  5  1  0  0  0
 22 23  1  0  0  0
 23 24  2  0  0  0
 24 25  1  0  0  0
 24 26  1  0  0  0
 26 27  2  0  0  0
 27 28  1  0  0  0
 28 29  2  0  0  0
 29 30  1  0  0  0
 30 31  1  0  0  0
 30 32  2  0  0  0
 32 33  1  0  0  0
 33 34  1  0  0  0
 33 27  1  0  0  0
 34 35  2  0  0  0
 34 23  1  0  0  0
  5  6  1  0  0  0
  5  1  1  0  0  0
  9 12  1  0  0  0
M  END
>  <minimizedAffinity>
0.44869

>  <minimizedRMSD>
2.25609

$$$$
ChemDiv-6040-4756 MCULE-4595688560 MolPort-001-625-492 PubChem-1213870 ZINC000000987120


 37 40  0  0  0  0  0  0  0  0999 V2000
   16.7368  -10.4943   12.1597 C   0  0  0  0  0  0  0  0  0  0  0  0
   15.9033   -9.4468   12.5805 C   0  0  0  0  0  0  0  0  0  0  0  0
   16.0203   -8.9254   13.8716 C   0  0  0  0  0  0  0  0  0  0  0  0
   16.9676   -9.4505   14.7556 C   0  0  0  0  0  0  0  0  0  0  0  0
   17.7889  -10.5065   14.3468 C   0  0  0  0  0  0  0  0  0  0  0  0
   17.6708  -11.0268   13.0550 C   0  0  0  0  0  0  0  0  0  0  0  0
   16.1159  -10.4430    9.6668 C   0  0  0  0  0  0  0  0  0  0  0  0
   15.8572  -11.1580    8.6636 O   0  0  0  0  0  0  0  0  0  0  0  0
   16.6324  -11.0677   10.8497 N   0  0  0  0  0  0  0  0  0  0  0  0
   16.9509  -11.9941   10.7513 H   0  0  0  0  0  0  0  0  0  0  0  0
   15.9059   -8.9633    9.5783 C   0  0  0  0  0  0  0  0  0  0  0  0
   17.9034   -7.7555    6.8226 C   0  0  0  0  0  0  0  0  0  0  0  0
   16.6935   -7.7034    6.2317 N   0  0  0  0  0  0  0  0  0  0  0  0
   15.8519   -8.1342    7.2105 C   0  0  0  0  0  0  0  0  0  0  0  0
   16.5054   -8.4344    8.3601 N   0  0  0  0  0  0  0  0  0  0  0  0
   17.7986   -8.1950    8.0958 C   0  0  0  0  0  0  0  0  0  0  0  0
   18.9319   -8.3271    8.8898 C   0  0  0  0  0  0  0  0  0  0  0  0
   20.1456   -8.0024    8.3372 N   0  0  0  0  0  0  0  0  0  0  0  0
   21.3582   -8.1291    9.1403 C   0  0  0  0  0  0  0  0  0  0  0  0
   20.2315   -7.5573    7.0329 C   0  0  0  0  0  0  0  0  0  0  0  0
   21.3574   -7.2638    6.5404 O   0  0  0  0  0  0  0  0  0  0  0  0
   19.0980   -7.4310    6.2656 N   0  0  0  0  0  0  0  0  0  0  0  0
   19.1657   -6.9633    4.8867 C   0  0  0  0  0  0  0  0  0  0  0  0
   18.8451   -8.7287   10.0818 O   0  0  0  0  0  0  0  0  0  0  0  0
   17.1047   -8.7988   16.3804 S   0  0  0  0  0  0  0  0  0  0  0  0
   16.9230   -9.8997   17.3888 O   0  0  0  0  0  0  0  0  0  0  0  0
   18.4735   -8.2049   16.5589 O   0  0  0  0  0  0  0  0  0  0  0  0
   15.9095   -7.5695   16.6338 N   0  0  0  0  0  0  0  0  0  0  0  0
   15.4278   -7.3705   15.7570 H   0  0  0  0  0  0  0  0  0  0  0  0
   14.9555   -8.0568   17.6204 C   0  0  0  0  0  0  0  0  0  0  0  0
   15.5482   -7.9830   19.0221 C   0  0  0  0  0  0  0  0  0  0  0  0
   14.6045   -7.3415   19.9854 C   0  0  0  0  0  0  0  0  0  0  0  0
   13.2826   -7.0608   19.6139 C   0  0  0  0  0  0  0  0  0  0  0  0
   12.4164   -6.4391   20.5185 C   0  0  0  0  0  0  0  0  0  0  0  0
   12.8707   -6.0904   21.7941 C   0  0  0  0  0  0  0  0  0  0  0  0
   14.1918   -6.3609   22.1641 C   0  0  0  0  0  0  0  0  0  0  0  0
   15.0581   -6.9831   21.2596 C   0  0  0  0  0  0  0  0  0  0  0  0
 12 13  1  0  0  0
 13 14  2  0  0  0
 14 15  1  0  0  0
 15 11  1  0  0  0
 11  7  1  0  0  0
  7  8  2  0  0  0
  7  9  1  0  0  0
  9  1  1  0  0  0
  1  2  2  0  0  0
  2  3  1  0  0  0
  3  4  2  0  0  0
  4  5  1  0  0  0
  5  6  2  0  0  0
  4 25  1  0  0  0
 25 28  1  0  0  0
 28 30  1  0  0  0
 30 31  1  0  0  0
 31 32  1  0  0  0
 32 33  2  0  0  0
 33 34  1  0  0  0
 34 35  2  0  0  0
 35 36  1  0  0  0
 36 37  2  0  0  0
 25 26  2  0  0  0
 25 27  2  0  0  0
 15 16  1  0  0  0
 16 17  1  0  0  0
 17 18  1  0  0  0
 18 19  1  0  0  0
 18 20  1  0  0  0
 20 21  2  0  0  0
 20 22  1  0  0  0
 22 23  1  0  0  0
 17 24  2  0  0  0
 16 12  2  0  0  0
 22 12  1  0  0  0
  6  1  1  0  0  0
 37 32  1  0  0  0
  9 10  1  0  0  0
 28 29  1  0  0  0
M  END
>  <minimizedAffinity>
0.49448

>  <minimizedRMSD>
2.51700

$$$$
ChemDiv-D483-1286 MCULE-6428784491 MolPort-007-710-904 PubChem-20899034 ZINC000015859195 ZINC15859195


 30 32  0  0  0  0  0  0  0  0999 V2000
   15.9802  -11.2614   12.3640 C   0  0  0  0  0  0  0  0  0  0  0  0
   17.3018  -10.6680   12.4891 N   0  0  0  0  0  0  0  0  0  0  0  0
   17.7423   -9.4997   11.9916 C   0  0  0  0  0  0  0  0  0  0  0  0
   19.0282   -9.2783   12.3291 N   0  0  0  0  0  0  0  0  0  0  0  0
   19.4216  -10.3163   13.0557 N   0  0  0  0  0  0  0  0  0  0  0  0
   18.3686  -11.1505   13.1473 C   0  0  0  0  0  0  0  0  0  0  0  0
   16.9281   -8.5702   11.1490 C   0  0  0  0  0  0  0  0  0  0  0  0
   17.2739   -8.7305    9.6953 C   0  0  0  0  0  0  0  0  0  0  0  0
   16.5759   -9.6330    8.8792 C   0  0  0  0  0  0  0  0  0  0  0  0
   15.4389  -10.4412    9.4063 C   0  0  0  0  0  0  0  0  0  0  0  0
   16.9264   -9.7738    7.5770 N   0  0  0  0  0  0  0  0  0  0  0  0
   17.9473   -9.0621    7.0377 C   0  0  0  0  0  0  0  0  0  0  0  0
   18.2695   -9.2446    5.6904 C   0  0  0  0  0  0  0  0  0  0  0  0
   19.3185   -8.5172    5.1314 C   0  0  0  0  0  0  0  0  0  0  0  0
   20.0329   -7.6182    5.9199 C   0  0  0  0  0  0  0  0  0  0  0  0
   21.1561   -6.8385    5.3381 C   0  0  0  0  0  0  0  0  0  0  0  0
   19.6851   -7.4561    7.2617 C   0  0  0  0  0  0  0  0  0  0  0  0
   18.6545   -8.1683    7.8093 N   0  0  0  0  0  0  0  0  0  0  0  0
   18.3281   -7.9952    9.1281 C   0  0  0  0  0  0  0  0  0  0  0  0
   18.9697   -7.1731    9.8424 O   0  0  0  0  0  0  0  0  0  0  0  0
   18.4073  -12.7088   14.0341 S   0  0  0  0  0  0  0  0  0  0  0  0
   17.1028  -12.2081   15.2031 C   0  0  0  0  0  0  0  0  0  0  0  0
   17.2283  -10.7650   15.5540 C   0  0  0  0  0  0  0  0  0  0  0  0
   16.1988  -10.0382   15.5566 O   0  0  0  0  0  0  0  0  0  0  0  0
   18.5110  -10.2210   15.8914 N   0  0  0  0  0  0  0  0  0  0  0  0
   19.2815  -10.8338   15.8868 H   0  0  0  0  0  0  0  0  0  0  0  0
   18.7595   -8.8246   16.2415 C   0  0  0  0  0  0  0  0  0  0  0  0
   17.8370   -7.9108   15.4550 C   0  0  0  0  0  0  0  0  0  0  0  0
   20.2061   -8.4562   15.9623 C   0  0  0  0  0  0  0  0  0  0  0  0
   18.4879   -8.6340   17.7184 C   0  0  0  0  0  0  0  0  0  0  0  0
  1  2  1  0  0  0
  2  3  1  0  0  0
  3  7  1  0  0  0
  3  4  2  0  0  0
  7  8  1  0  0  0
  8  9  2  0  0  0
  9 10  1  0  0  0
  9 11  1  0  0  0
 11 12  2  0  0  0
 12 13  1  0  0  0
 13 14  2  0  0  0
 14 15  1  0  0  0
 15 16  1  0  0  0
 15 17  2  0  0  0
 17 18  1  0  0  0
 18 19  1  0  0  0
 18 12  1  0  0  0
 19 20  2  0  0  0
 19  8  1  0  0  0
  4  5  1  0  0  0
  5  6  2  0  0  0
  6 21  1  0  0  0
  6  2  1  0  0  0
 21 22  1  0  0  0
 22 23  1  0  0  0
 23 24  2  0  0  0
 23 25  1  0  0  0
 25 27  1  0  0  0
 27 28  1  0  0  0
 27 29  1  0  0  0
 27 30  1  0  0  0
 25 26  1  0  0  0
M  END
>  <minimizedAffinity>
0.60432

>  <minimizedRMSD>
2.49501

$$$$
ChemDiv-M676-1380 MCULE-7604014856 MolPort-028-858-354 PubChem-71842030


 29 32  0  0  0  0  0  0  0  0999 V2000
   18.4857   -9.7199   13.9492 N   0  0  0  0  0  0  0  0  0  0  0  0
   19.0354  -10.4765   15.0826 C   0  0  0  0  0  0  0  0  0  0  0  0
   18.6269   -9.9013   16.4508 C   0  0  0  0  0  0  0  0  0  0  0  0
   18.0474   -8.4919   16.3308 C   0  0  0  0  0  0  0  0  0  0  0  0
   16.8982   -8.4385   15.3148 C   0  0  0  0  0  0  0  0  0  0  0  0
   17.0675   -9.4606   14.1870 C   0  0  0  0  0  0  0  0  0  0  0  0
   15.5737   -8.6137   15.9816 C   0  0  0  0  0  0  0  0  0  0  0  0
   14.6383  -10.0089   15.9648 S   0  0  0  0  0  0  0  0  0  0  0  0
   13.3952   -9.3577   16.8962 C   0  0  0  0  0  0  0  0  0  0  0  0
   13.7688   -8.0447   17.1826 C   0  0  0  0  0  0  0  0  0  0  0  0
   14.9677   -7.6373   16.6844 N   0  0  0  0  0  0  0  0  0  0  0  0
   12.9275   -7.1451   18.0222 C   0  0  0  0  0  0  0  0  0  0  0  0
   13.5325   -6.9663   19.3349 N   0  0  0  0  0  0  0  0  0  0  0  0
   13.5159   -5.7189   20.0318 C   0  0  0  0  0  0  0  0  0  0  0  0
   14.1908   -5.6058   21.3505 C   0  0  0  0  0  0  0  0  0  0  0  0
   12.9305   -4.7162   19.5433 O   0  0  0  0  0  0  0  0  0  0  0  0
   13.9718   -7.7378   19.7603 H   0  0  0  0  0  0  0  0  0  0  0  0
   18.6142  -10.7206   12.5372 S   0  0  0  0  0  0  0  0  0  0  0  0
   19.9210  -11.4640   12.5713 O   0  0  0  0  0  0  0  0  0  0  0  0
   17.4951  -11.7259   12.5043 O   0  0  0  0  0  0  0  0  0  0  0  0
   18.5671   -9.7187   11.0861 C   0  0  0  0  0  0  0  0  0  0  0  0
   19.6621   -8.8943   10.7882 C   0  0  0  0  0  0  0  0  0  0  0  0
   19.6571   -8.0700    9.6533 C   0  0  0  0  0  0  0  0  0  0  0  0
   18.5535   -8.0492    8.7930 C   0  0  0  0  0  0  0  0  0  0  0  0
   17.4555   -8.8591    9.0773 C   0  0  0  0  0  0  0  0  0  0  0  0
   16.3490   -8.8876    8.2941 N   0  0  0  0  0  0  0  0  0  0  0  0
   15.4353   -9.9890    9.1231 S   0  0  0  0  0  0  0  0  0  0  0  0
   16.3418  -10.4502   10.4268 N   0  0  0  0  0  0  0  0  0  0  0  0
   17.4558   -9.7002   10.2276 C   0  0  0  0  0  0  0  0  0  0  0  0
 18 19  2  0  0  0
 18 20  2  0  0  0
 18  1  1  0  0  0
  1  2  1  0  0  0
  2  3  1  0  0  0
  3  4  1  0  0  0
  4  5  1  0  0  0
  5  6  1  0  0  0
  5  7  1  0  0  0
  7  8  1  0  0  0
  8  9  1  0  0  0
  9 10  2  0  0  0
 10 12  1  0  0  0
 12 13  1  0  0  0
 13 14  1  0  0  0
 14 15  1  0  0  0
 14 16  2  0  0  0
 10 11  1  0  0  0
 18 21  1  0  0  0
 21 22  2  0  0  0
 22 23  1  0  0  0
 23 24  2  0  0  0
 24 25  1  0  0  0
 25 26  2  0  0  0
 26 27  1  0  0  0
 27 28  1  0  0  0
 28 29  2  0  0  0
  6  1  1  0  0  0
 11  7  2  0  0  0
 29 21  1  0  0  0
 29 25  1  0  0  0
 13 17  1  0  0  0
M  END
>  <minimizedAffinity>
1.00729

>  <minimizedRMSD>
3.18590

$$$$
ChemDiv-L330-0107 MCULE-8559098986 MolPort-010-864-871 PubChem-53107725 ZINC000065024545


 32 35  0  0  0  0  0  0  0  0999 V2000
   18.4800  -10.0541    9.8702 O   0  0  0  0  0  0  0  0  0  0  0  0
   15.6590   -7.6704    7.3652 N   0  0  0  0  0  0  0  0  0  0  0  0
   14.6514   -8.1205    8.0632 O   0  0  0  0  0  0  0  0  0  0  0  0
   15.0755   -8.9894    8.9422 C   0  0  0  0  0  0  0  0  0  0  0  0
   16.4284   -9.1208    8.8654 C   0  0  0  0  0  0  0  0  0  0  0  0
   17.0886   -9.9725    9.7617 C   0  0  0  0  0  0  0  0  0  0  0  0
   16.3146  -10.7111   10.6107 N   0  0  0  0  0  0  0  0  0  0  0  0
   14.9508  -10.5845   10.6382 C   0  0  0  0  0  0  0  0  0  0  0  0
   14.3195   -9.7040    9.8078 N   0  0  0  0  0  0  0  0  0  0  0  0
   16.7840   -8.2781    7.8197 C   0  0  0  0  0  0  0  0  0  0  0  0
   18.0806   -8.1570    7.1356 C   0  0  0  0  0  0  0  0  0  0  0  0
   18.2621   -8.6769    5.8460 C   0  0  0  0  0  0  0  0  0  0  0  0
   19.4821   -8.5109    5.1840 C   0  0  0  0  0  0  0  0  0  0  0  0
   20.5221   -7.8105    5.8012 C   0  0  0  0  0  0  0  0  0  0  0  0
   20.3395   -7.2698    7.0772 C   0  0  0  0  0  0  0  0  0  0  0  0
   19.1193   -7.4360    7.7390 C   0  0  0  0  0  0  0  0  0  0  0  0
   19.1293  -10.7245   10.9460 C   0  0  0  0  0  0  0  0  0  0  0  0
   18.8245  -10.0529   12.2403 C   0  0  0  0  0  0  0  0  0  0  0  0
   19.4978   -9.0461   12.5852 O   0  0  0  0  0  0  0  0  0  0  0  0
   17.7516  -10.5461   13.0525 N   0  0  0  0  0  0  0  0  0  0  0  0
   17.2770  -11.3425   12.7212 H   0  0  0  0  0  0  0  0  0  0  0  0
   17.2984   -9.9990   14.2981 C   0  0  0  0  0  0  0  0  0  0  0  0
   17.5828  -10.6898   15.4800 C   0  0  0  0  0  0  0  0  0  0  0  0
   17.1551  -10.1890   16.7132 C   0  0  0  0  0  0  0  0  0  0  0  0
   16.4369   -8.9909   16.7804 C   0  0  0  0  0  0  0  0  0  0  0  0
   16.1502   -8.2969   15.5958 C   0  0  0  0  0  0  0  0  0  0  0  0
   16.5777   -8.7976   14.3633 C   0  0  0  0  0  0  0  0  0  0  0  0
   16.0155   -8.5098   18.0640 N   0  0  0  0  0  0  0  0  0  0  0  0
   14.8683   -7.6964   18.3402 C   0  0  0  0  0  0  0  0  0  0  0  0
   14.5854   -7.2902   19.7411 C   0  0  0  0  0  0  0  0  0  0  0  0
   14.0955   -7.3193   17.4203 O   0  0  0  0  0  0  0  0  0  0  0  0
   16.5718   -8.7646   18.8353 H   0  0  0  0  0  0  0  0  0  0  0  0
  2  3  1  0  0  0
  3  4  1  0  0  0
  4  5  2  0  0  0
  5  6  1  0  0  0
  6  1  1  0  0  0
  1 17  1  0  0  0
 17 18  1  0  0  0
 18 19  2  0  0  0
 18 20  1  0  0  0
 20 22  1  0  0  0
 22 23  2  0  0  0
 23 24  1  0  0  0
 24 25  2  0  0  0
 25 26  1  0  0  0
 26 27  2  0  0  0
 25 28  1  0  0  0
 28 29  1  0  0  0
 29 30  1  0  0  0
 29 31  2  0  0  0
  6  7  2  0  0  0
  7  8  1  0  0  0
  8  9  2  0  0  0
  5 10  1  0  0  0
 10 11  1  0  0  0
 11 12  2  0  0  0
 12 13  1  0  0  0
 13 14  2  0  0  0
 14 15  1  0  0  0
 15 16  2  0  0  0
 10  2  2  0  0  0
 16 11  1  0  0  0
  9  4  1  0  0  0
 27 22  1  0  0  0
 20 21  1  0  0  0
 28 32  1  0  0  0
M  END
>  <minimizedAffinity>
1.55706

>  <minimizedRMSD>
2.29839

$$$$
ChemDiv-L466-0413 MCULE-7173759854 MolPort-010-869-400 PubChem-53112228


 30 33  0  0  0  0  0  0  0  0999 V2000
   15.5351   -8.5493   15.1843 C   0  0  0  0  0  0  0  0  0  0  0  0
   16.2886   -7.5830   14.5123 C   0  0  0  0  0  0  0  0  0  0  0  0
   16.6112   -7.7520   13.1630 C   0  0  0  0  0  0  0  0  0  0  0  0
   16.1826   -8.8907   12.4645 C   0  0  0  0  0  0  0  0  0  0  0  0
   15.4221   -9.8572   13.1411 C   0  0  0  0  0  0  0  0  0  0  0  0
   15.0996   -9.6884   14.4898 C   0  0  0  0  0  0  0  0  0  0  0  0
   16.5343   -9.0629   11.0388 C   0  0  0  0  0  0  0  0  0  0  0  0
   15.8616   -9.9982   10.2357 C   0  0  0  0  0  0  0  0  0  0  0  0
   16.2034  -10.1407    8.9276 N   0  0  0  0  0  0  0  0  0  0  0  0
   17.1914   -9.3894    8.3777 C   0  0  0  0  0  0  0  0  0  0  0  0
   17.5374   -9.5434    7.0328 C   0  0  0  0  0  0  0  0  0  0  0  0
   18.5600   -8.7621    6.4843 C   0  0  0  0  0  0  0  0  0  0  0  0
   19.2361   -7.8285    7.2785 C   0  0  0  0  0  0  0  0  0  0  0  0
   18.8929   -7.6711    8.6254 C   0  0  0  0  0  0  0  0  0  0  0  0
   17.8721   -8.4494    9.1773 C   0  0  0  0  0  0  0  0  0  0  0  0
   17.5266   -8.3112   10.4834 N   0  0  0  0  0  0  0  0  0  0  0  0
   15.2342   -8.3537   16.5371 O   0  0  0  0  0  0  0  0  0  0  0  0
   16.8549   -7.9863   18.2701 C   0  0  0  0  0  0  0  0  0  0  0  0
   15.9410   -8.9922   17.5969 C   0  0  0  0  0  0  0  0  0  0  0  0
   16.7462  -10.1342   17.0674 C   0  0  0  0  0  0  0  0  0  0  0  0
   16.7553  -11.2267   17.6950 O   0  0  0  0  0  0  0  0  0  0  0  0
   17.5158   -9.9747   15.8693 N   0  0  0  0  0  0  0  0  0  0  0  0
   17.6626   -9.0587   15.5397 H   0  0  0  0  0  0  0  0  0  0  0  0
   18.0874  -11.0514   15.1157 C   0  0  0  0  0  0  0  0  0  0  0  0
   17.7706  -12.3287   15.4644 N   0  0  0  0  0  0  0  0  0  0  0  0
   18.2797  -13.4050   14.8082 C   0  0  0  0  0  0  0  0  0  0  0  0
   19.1697  -13.2224   13.7501 C   0  0  0  0  0  0  0  0  0  0  0  0
   19.5374  -11.9275   13.3870 C   0  0  0  0  0  0  0  0  0  0  0  0
   19.0070  -10.8295   14.0672 C   0  0  0  0  0  0  0  0  0  0  0  0
   19.4973   -9.4686   13.7072 C   0  0  0  0  0  0  0  0  0  0  0  0
 19 18  1  0  0  0
 19 17  1  0  0  0
 19 20  1  0  0  0
 17  1  1  0  0  0
  1  2  2  0  0  0
  2  3  1  0  0  0
  3  4  2  0  0  0
  4  5  1  0  0  0
  4  7  1  0  0  0
  5  6  2  0  0  0
  6  1  1  0  0  0
  7  8  2  0  0  0
  8  9  1  0  0  0
  9 10  2  0  0  0
 10 11  1  0  0  0
 11 12  2  0  0  0
 12 13  1  0  0  0
 13 14  2  0  0  0
 14 15  1  0  0  0
 15 16  2  0  0  0
 15 10  1  0  0  0
 16  7  1  0  0  0
 20 21  2  0  0  0
 20 22  1  0  0  0
 22 24  1  0  0  0
 24 25  2  0  0  0
 25 26  1  0  0  0
 26 27  2  0  0  0
 27 28  1  0  0  0
 28 29  2  0  0  0
 29 30  1  0  0  0
 29 24  1  0  0  0
 22 23  1  0  0  0
M  END
>  <minimizedAffinity>
1.72637

>  <minimizedRMSD>
2.54947

$$$$
ChemDiv-L466-0044 MCULE-6156104861 MolPort-010-869-339 PubChem-53112167 ZINC000065031432 ZINC65031432


 30 33  0  0  0  0  0  0  0  0999 V2000
   15.6341   -8.2362   15.4933 C   0  0  0  0  0  0  0  0  0  0  0  0
   15.1127   -9.3872   14.8823 C   0  0  0  0  0  0  0  0  0  0  0  0
   15.3655   -9.6445   13.5327 C   0  0  0  0  0  0  0  0  0  0  0  0
   16.1416   -8.7560   12.7718 C   0  0  0  0  0  0  0  0  0  0  0  0
   16.6574   -7.6058   13.3871 C   0  0  0  0  0  0  0  0  0  0  0  0
   16.4049   -7.3485   14.7374 C   0  0  0  0  0  0  0  0  0  0  0  0
   16.4163   -9.0199   11.3433 C   0  0  0  0  0  0  0  0  0  0  0  0
   15.6676   -9.9665   10.6258 C   0  0  0  0  0  0  0  0  0  0  0  0
   15.9383  -10.1928    9.3129 N   0  0  0  0  0  0  0  0  0  0  0  0
   16.9275   -9.5151    8.6764 C   0  0  0  0  0  0  0  0  0  0  0  0
   17.1992   -9.7540    7.3267 C   0  0  0  0  0  0  0  0  0  0  0  0
   18.2226   -9.0458    6.6876 C   0  0  0  0  0  0  0  0  0  0  0  0
   18.9735   -8.1005    7.3962 C   0  0  0  0  0  0  0  0  0  0  0  0
   18.7047   -7.8584    8.7478 C   0  0  0  0  0  0  0  0  0  0  0  0
   17.6834   -8.5634    9.3898 C   0  0  0  0  0  0  0  0  0  0  0  0
   17.4088   -8.3414   10.7010 N   0  0  0  0  0  0  0  0  0  0  0  0
   15.4027   -7.9511   16.8439 O   0  0  0  0  0  0  0  0  0  0  0  0
   16.0905   -8.5980   17.9110 C   0  0  0  0  0  0  0  0  0  0  0  0
   17.5846   -9.7164   16.2077 N   0  0  0  0  0  0  0  0  0  0  0  0
   16.8121   -9.8021   17.4097 C   0  0  0  0  0  0  0  0  0  0  0  0
   16.7738  -10.8693   18.0776 O   0  0  0  0  0  0  0  0  0  0  0  0
   17.8147   -8.8162   15.8823 H   0  0  0  0  0  0  0  0  0  0  0  0
   19.4019  -14.1622   13.3427 F   0  0  0  0  0  0  0  0  0  0  0  0
   18.9663  -13.0777   14.0270 C   0  0  0  0  0  0  0  0  0  0  0  0
   19.3290  -11.7954   13.6083 C   0  0  0  0  0  0  0  0  0  0  0  0
   18.8803  -10.6716   14.3093 C   0  0  0  0  0  0  0  0  0  0  0  0
   19.3078   -9.4459   13.9180 F   0  0  0  0  0  0  0  0  0  0  0  0
   18.0510  -10.8321   15.4386 C   0  0  0  0  0  0  0  0  0  0  0  0
   17.7205  -12.1223   15.8678 C   0  0  0  0  0  0  0  0  0  0  0  0
   18.1702  -13.2416   15.1625 C   0  0  0  0  0  0  0  0  0  0  0  0
 23 24  1  0  0  0
 24 25  2  0  0  0
 25 26  1  0  0  0
 26 27  1  0  0  0
 26 28  2  0  0  0
 28 19  1  0  0  0
 28 29  1  0  0  0
 19 20  1  0  0  0
 20 21  2  0  0  0
 20 18  1  0  0  0
 18 17  1  0  0  0
 17  1  1  0  0  0
  1  2  2  0  0  0
  2  3  1  0  0  0
  3  4  2  0  0  0
  4  5  1  0  0  0
  4  7  1  0  0  0
  5  6  2  0  0  0
  6  1  1  0  0  0
  7  8  2  0  0  0
  8  9  1  0  0  0
  9 10  2  0  0  0
 10 11  1  0  0  0
 11 12  2  0  0  0
 12 13  1  0  0  0
 13 14  2  0  0  0
 14 15  1  0  0  0
 15 16  2  0  0  0
 15 10  1  0  0  0
 16  7  1  0  0  0
 29 30  2  0  0  0
 30 24  1  0  0  0
 19 22  1  0  0  0
M  END
>  <minimizedAffinity>
2.11067

>  <minimizedRMSD>
2.62802

$$$$
ChemDiv-D549-1045 MCULE-1199827953 MolPort-010-800-742 PubChem-53046675


 36 40  0  0  0  0  0  0  0  0999 V2000
   15.8162   -9.8814   12.0041 C   0  0  0  0  0  0  0  0  0  0  0  0
   14.4703   -9.8619   12.0538 N   0  0  0  0  0  0  0  0  0  0  0  0
   14.1220  -10.1363   13.3016 N   0  0  0  0  0  0  0  0  0  0  0  0
   15.2603  -10.3190   13.9959 C   0  0  0  0  0  0  0  0  0  0  0  0
   16.3506  -10.1731   13.2125 N   0  0  0  0  0  0  0  0  0  0  0  0
   16.5687   -9.5891   10.7724 C   0  0  0  0  0  0  0  0  0  0  0  0
   17.6238   -8.6787   10.6271 C   0  0  0  0  0  0  0  0  0  0  0  0
   18.1121   -7.8529   11.6813 N   0  0  0  0  0  0  0  0  0  0  0  0
   18.0866   -8.5893    9.3116 C   0  0  0  0  0  0  0  0  0  0  0  0
   17.3949   -9.4089    8.4396 C   0  0  0  0  0  0  0  0  0  0  0  0
   17.6759   -9.4612    7.1142 N   0  0  0  0  0  0  0  0  0  0  0  0
   18.6787   -8.6831    6.6127 C   0  0  0  0  0  0  0  0  0  0  0  0
   19.4122   -7.8289    7.4590 C   0  0  0  0  0  0  0  0  0  0  0  0
   19.1122   -7.7768    8.8293 C   0  0  0  0  0  0  0  0  0  0  0  0
   16.1962  -10.2522    9.2564 S   0  0  0  0  0  0  0  0  0  0  0  0
   17.7535   -7.9546   12.5925 H   0  0  0  0  0  0  0  0  0  0  0  0
   18.8079   -7.1809   11.4982 H   0  0  0  0  0  0  0  0  0  0  0  0
   17.7208  -10.4534   13.5490 C   0  0  0  0  0  0  0  0  0  0  0  0
   18.4407   -9.5840   14.3812 C   0  0  0  0  0  0  0  0  0  0  0  0
   19.7726   -9.8562   14.7057 C   0  0  0  0  0  0  0  0  0  0  0  0
   20.3948  -11.0008   14.2007 C   0  0  0  0  0  0  0  0  0  0  0  0
   19.6849  -11.8746   13.3733 C   0  0  0  0  0  0  0  0  0  0  0  0
   18.3529  -11.6026   13.0496 C   0  0  0  0  0  0  0  0  0  0  0  0
   21.6858  -11.2641   14.5145 F   0  0  0  0  0  0  0  0  0  0  0  0
   15.2788  -10.8089   15.7225 S   0  0  0  0  0  0  0  0  0  0  0  0
   16.3881   -9.4479   16.2041 C   0  0  0  0  0  0  0  0  0  0  0  0
   15.6035   -8.2553   16.6304 C   0  0  0  0  0  0  0  0  0  0  0  0
   15.4847   -7.2777   15.8449 O   0  0  0  0  0  0  0  0  0  0  0  0
   15.0007   -8.2252   17.9244 N   0  0  0  0  0  0  0  0  0  0  0  0
   15.1200   -8.9961   18.5250 H   0  0  0  0  0  0  0  0  0  0  0  0
   14.2159   -7.0899   18.3811 C   0  0  0  0  0  0  0  0  0  0  0  0
   12.8755   -7.5688   18.9055 C   0  0  0  0  0  0  0  0  0  0  0  0
   12.1514   -6.4242   19.5724 C   0  0  0  0  0  0  0  0  0  0  0  0
   10.7236   -6.6112   19.1570 C   0  0  0  0  0  0  0  0  0  0  0  0
   10.7587   -7.8320   18.2676 C   0  0  0  0  0  0  0  0  0  0  0  0
   12.0810   -8.0381   17.8489 O   0  0  0  0  0  0  0  0  0  0  0  0
  1  2  2  0  0  0
  2  3  1  0  0  0
  3  4  2  0  0  0
  4 25  1  0  0  0
 25 26  1  0  0  0
 26 27  1  0  0  0
 27 28  2  0  0  0
 27 29  1  0  0  0
 29 31  1  0  0  0
 31 32  1  0  0  0
 32 33  1  0  0  0
 33 34  1  0  0  0
 34 35  1  0  0  0
 35 36  1  0  0  0
  4  5  1  0  0  0
  5 18  1  0  0  0
 18 19  2  0  0  0
 19 20  1  0  0  0
 20 21  2  0  0  0
 21 22  1  0  0  0
 22 23  2  0  0  0
 21 24  1  0  0  0
  1  6  1  0  0  0
  6  7  2  0  0  0
  7  8  1  0  0  0
  7  9  1  0  0  0
  9 10  2  0  0  0
 10 11  1  0  0  0
 11 12  2  0  0  0
 12 13  1  0  0  0
 13 14  2  0  0  0
 10 15  1  0  0  0
  5  1  1  0  0  0
 23 18  1  0  0  0
 15  6  1  0  0  0
 36 32  1  0  0  0
 14  9  1  0  0  0
 29 30  1  0  0  0
  8 16  1  0  0  0
  8 17  1  0  0  0
M  END
>  <minimizedAffinity>
2.35084

>  <minimizedRMSD>
1.55273

$$$$
ChemDiv-8011-6950 MCULE-1513355198 MolPort-001-982-702 PubChem-1804181 ZINC000008425940


 34 37  0  0  0  0  0  0  0  0999 V2000
   16.3870   -9.5766    9.5296 C   0  0  0  0  0  0  0  0  0  0  0  0
   17.6365   -9.2281    9.9405 N   0  0  0  0  0  0  0  0  0  0  0  0
   18.1555   -8.5608    8.9008 C   0  0  0  0  0  0  0  0  0  0  0  0
   17.2356   -8.5270    7.8944 C   0  0  0  0  0  0  0  0  0  0  0  0
   17.4934   -7.8933    6.6816 C   0  0  0  0  0  0  0  0  0  0  0  0
   18.7509   -7.2802    6.5254 C   0  0  0  0  0  0  0  0  0  0  0  0
   19.7023   -7.3136    7.5701 C   0  0  0  0  0  0  0  0  0  0  0  0
   19.4096   -7.9619    8.7842 C   0  0  0  0  0  0  0  0  0  0  0  0
   16.1078   -9.1612    8.2641 N   0  0  0  0  0  0  0  0  0  0  0  0
   15.4148  -10.3230   10.3521 C   0  0  0  0  0  0  0  0  0  0  0  0
   15.6170  -11.5442   10.8777 N   0  0  0  0  0  0  0  0  0  0  0  0
   14.5231  -11.8393   11.5255 O   0  0  0  0  0  0  0  0  0  0  0  0
   13.6102  -10.9092   11.4707 N   0  0  0  0  0  0  0  0  0  0  0  0
   14.1539   -9.9309   10.7278 C   0  0  0  0  0  0  0  0  0  0  0  0
   13.5146   -8.6939   10.3952 N   0  0  0  0  0  0  0  0  0  0  0  0
   12.0993   -8.5064   10.2991 C   0  0  0  0  0  0  0  0  0  0  0  0
   11.3017   -9.4555   10.5233 O   0  0  0  0  0  0  0  0  0  0  0  0
   14.0910   -7.9153   10.2198 H   0  0  0  0  0  0  0  0  0  0  0  0
   11.5613   -7.1619    9.9588 C   0  0  0  0  0  0  0  0  0  0  0  0
   11.8067   -6.2033   11.1069 C   0  0  0  0  0  0  0  0  0  0  0  0
   18.2600   -9.4456   11.2397 C   0  0  0  0  0  0  0  0  0  0  0  0
   17.1945   -9.5286   12.3150 C   0  0  0  0  0  0  0  0  0  0  0  0
   17.5275  -10.6569   13.2700 C   0  0  0  0  0  0  0  0  0  0  0  0
   17.2111  -10.2547   14.6682 C   0  0  0  0  0  0  0  0  0  0  0  0
   17.4314  -11.0499   15.7373 N   0  0  0  0  0  0  0  0  0  0  0  0
   17.0905  -10.4835   16.8938 N   0  0  0  0  0  0  0  0  0  0  0  0
   16.6014   -9.2331   16.7512 C   0  0  0  0  0  0  0  0  0  0  0  0
   16.5722   -8.7646   15.1289 S   0  0  0  0  0  0  0  0  0  0  0  0
   16.1737   -8.4466   17.8695 N   0  0  0  0  0  0  0  0  0  0  0  0
   14.9529   -7.7038   17.9674 C   0  0  0  0  0  0  0  0  0  0  0  0
   14.1308   -7.6680   17.0142 O   0  0  0  0  0  0  0  0  0  0  0  0
   16.7776   -8.4133   18.6464 H   0  0  0  0  0  0  0  0  0  0  0  0
   14.6666   -6.9328   19.2070 C   0  0  0  0  0  0  0  0  0  0  0  0
   14.9216   -7.8001   20.4237 C   0  0  0  0  0  0  0  0  0  0  0  0
  1  2  1  0  0  0
  2 21  1  0  0  0
 21 22  1  0  0  0
 22 23  1  0  0  0
 23 24  1  0  0  0
 24 25  2  0  0  0
 25 26  1  0  0  0
 26 27  2  0  0  0
 27 29  1  0  0  0
 29 30  1  0  0  0
 30 33  1  0  0  0
 33 34  1  0  0  0
 30 31  2  0  0  0
 27 28  1  0  0  0
  2  3  1  0  0  0
  3  4  1  0  0  0
  4  5  2  0  0  0
  5  6  1  0  0  0
  6  7  2  0  0  0
  7  8  1  0  0  0
  4  9  1  0  0  0
  1 10  1  0  0  0
 10 11  2  0  0  0
 11 12  1  0  0  0
 12 13  1  0  0  0
 13 14  2  0  0  0
 14 15  1  0  0  0
 15 16  1  0  0  0
 16 19  1  0  0  0
 19 20  1  0  0  0
 16 17  2  0  0  0
  9  1  2  0  0  0
 14 10  1  0  0  0
 28 24  1  0  0  0
  8  3  2  0  0  0
 29 32  1  0  0  0
 15 18  1  0  0  0
M  END
>  <minimizedAffinity>
3.76871

>  <minimizedRMSD>
3.18390

$$$$
ChemDiv-5720-0015 MCULE-1906436042 MolPort-001-998-755 PubChem-2930387 ZINC000008695119


 36 41  0  0  0  0  0  0  0  0999 V2000
   17.0045   -9.3427   13.2337 C   0  0  0  0  0  0  0  0  0  0  0  0
   16.6491   -9.8264   15.6986 C   0  0  0  0  0  0  0  0  0  0  0  0
   17.0091  -10.7379   16.6425 N   0  0  0  0  0  0  0  0  0  0  0  0
   17.8005  -11.5873   15.9623 C   0  0  0  0  0  0  0  0  0  0  0  0
   17.9114  -11.1986   14.6596 C   0  0  0  0  0  0  0  0  0  0  0  0
   18.6814  -11.9045   13.7354 C   0  0  0  0  0  0  0  0  0  0  0  0
   19.3515  -13.0518   14.1983 C   0  0  0  0  0  0  0  0  0  0  0  0
   19.2367  -13.4556   15.5478 C   0  0  0  0  0  0  0  0  0  0  0  0
   18.4507  -12.7170   16.4523 C   0  0  0  0  0  0  0  0  0  0  0  0
   17.1824  -10.0880   14.4746 N   0  0  0  0  0  0  0  0  0  0  0  0
   15.7927   -8.6644   16.0055 C   0  0  0  0  0  0  0  0  0  0  0  0
   15.1334   -7.9223   15.0981 N   0  0  0  0  0  0  0  0  0  0  0  0
   14.5151   -6.9943   15.7772 O   0  0  0  0  0  0  0  0  0  0  0  0
   14.7147   -7.0599   17.0648 N   0  0  0  0  0  0  0  0  0  0  0  0
   15.5271   -8.1135   17.2337 C   0  0  0  0  0  0  0  0  0  0  0  0
   16.0089   -8.5607   18.4964 N   0  0  0  0  0  0  0  0  0  0  0  0
   15.7510   -8.0843   19.3184 H   0  0  0  0  0  0  0  0  0  0  0  0
   16.5999   -9.3463   18.5476 H   0  0  0  0  0  0  0  0  0  0  0  0
   17.3781  -10.2097   12.0390 C   0  0  0  0  0  0  0  0  0  0  0  0
   17.1451   -9.4877   10.7933 N   0  0  0  0  0  0  0  0  0  0  0  0
   18.0691   -8.8849   10.0282 C   0  0  0  0  0  0  0  0  0  0  0  0
   19.4321   -8.7136   10.2729 C   0  0  0  0  0  0  0  0  0  0  0  0
   20.1885   -8.0596    9.2832 C   0  0  0  0  0  0  0  0  0  0  0  0
   19.5764   -7.6105    8.0916 C   0  0  0  0  0  0  0  0  0  0  0  0
   18.2009   -7.8130    7.8728 C   0  0  0  0  0  0  0  0  0  0  0  0
   17.4804   -8.4582    8.8748 C   0  0  0  0  0  0  0  0  0  0  0  0
   16.1775   -8.7896    8.8611 N   0  0  0  0  0  0  0  0  0  0  0  0
   16.0014   -9.4149   10.0564 C   0  0  0  0  0  0  0  0  0  0  0  0
   14.7079  -10.0272   10.4181 C   0  0  0  0  0  0  0  0  0  0  0  0
   13.7637  -10.3532    9.5171 N   0  0  0  0  0  0  0  0  0  0  0  0
   12.7521  -10.8089   10.2037 O   0  0  0  0  0  0  0  0  0  0  0  0
   12.9430  -10.7975   11.4934 N   0  0  0  0  0  0  0  0  0  0  0  0
   14.1825  -10.3116   11.6575 C   0  0  0  0  0  0  0  0  0  0  0  0
   14.7403   -9.9872   12.9245 N   0  0  0  0  0  0  0  0  0  0  0  0
   14.2697  -10.2444   13.7500 H   0  0  0  0  0  0  0  0  0  0  0  0
   15.5973   -9.5053   12.9762 H   0  0  0  0  0  0  0  0  0  0  0  0
  2  3  2  0  0  0
  3  4  1  0  0  0
  4  5  2  0  0  0
  5  6  1  0  0  0
  6  7  2  0  0  0
  7  8  1  0  0  0
  8  9  2  0  0  0
  5 10  1  0  0  0
 10  1  1  0  0  0
  1 19  1  0  0  0
 19 20  1  0  0  0
 20 21  1  0  0  0
 21 22  2  0  0  0
 22 23  1  0  0  0
 23 24  2  0  0  0
 24 25  1  0  0  0
 25 26  2  0  0  0
 26 27  1  0  0  0
 27 28  2  0  0  0
 28 29  1  0  0  0
 29 30  2  0  0  0
 30 31  1  0  0  0
 31 32  1  0  0  0
 32 33  2  0  0  0
 33 34  1  0  0  0
  2 11  1  0  0  0
 11 12  2  0  0  0
 12 13  1  0  0  0
 13 14  1  0  0  0
 14 15  2  0  0  0
 15 16  1  0  0  0
 10  2  1  0  0  0
 28 20  1  0  0  0
 33 29  1  0  0  0
 15 11  1  0  0  0
  9  4  1  0  0  0
 26 21  1  0  0  0
 34 35  1  0  0  0
 34 36  1  0  0  0
 16 17  1  0  0  0
 16 18  1  0  0  0
M  END
>  <minimizedAffinity>
3.86424

>  <minimizedRMSD>
0.87086

$$$$
ChemDiv-F145-0589 MCULE-2643937053 MolPort-010-714-975 PubChem-20930467 ZINC000021882533 ZINC21882533


 36 39  0  0  0  0  0  0  0  0999 V2000
   17.5508   -9.5009   13.4912 N   0  0  0  0  0  0  0  0  0  0  0  0
   16.7029  -10.5039   12.9264 C   0  0  0  0  0  0  0  0  0  0  0  0
   17.1155  -11.6851   12.7793 O   0  0  0  0  0  0  0  0  0  0  0  0
   17.2173   -8.5759   13.5388 H   0  0  0  0  0  0  0  0  0  0  0  0
   18.8862   -9.7858   13.9994 C   0  0  0  0  0  0  0  0  0  0  0  0
   18.8130  -10.5019   15.3427 C   0  0  0  0  0  0  0  0  0  0  0  0
   16.1365   -8.4386   17.9882 C   0  0  0  0  0  0  0  0  0  0  0  0
   15.6577   -9.4617   17.1623 C   0  0  0  0  0  0  0  0  0  0  0  0
   16.5313  -10.1385   16.3066 C   0  0  0  0  0  0  0  0  0  0  0  0
   17.8874   -9.7948   16.2746 C   0  0  0  0  0  0  0  0  0  0  0  0
   18.3656   -8.7666   17.0946 C   0  0  0  0  0  0  0  0  0  0  0  0
   17.4913   -8.0905   17.9505 C   0  0  0  0  0  0  0  0  0  0  0  0
   15.9341   -6.7293   20.2575 N   0  0  0  0  0  0  0  0  0  0  0  0
   15.0364   -7.5827   19.0527 S   0  0  0  0  0  0  0  0  0  0  0  0
   14.1246   -8.5649   19.7326 O   0  0  0  0  0  0  0  0  0  0  0  0
   14.2194   -6.6076   18.2535 O   0  0  0  0  0  0  0  0  0  0  0  0
   15.2901   -6.2334   20.8737 H   0  0  0  0  0  0  0  0  0  0  0  0
   16.5569   -6.0591   19.8064 H   0  0  0  0  0  0  0  0  0  0  0  0
   15.3274  -10.1416   12.4778 C   0  0  0  0  0  0  0  0  0  0  0  0
   15.1586  -10.3806   10.9829 C   0  0  0  0  0  0  0  0  0  0  0  0
   16.2426   -9.7114   10.2055 C   0  0  0  0  0  0  0  0  0  0  0  0
   15.9734   -9.1698    8.9838 N   0  0  0  0  0  0  0  0  0  0  0  0
   16.9710   -8.5539    8.3072 C   0  0  0  0  0  0  0  0  0  0  0  0
   18.2553   -8.4521    8.8078 C   0  0  0  0  0  0  0  0  0  0  0  0
   19.1336   -7.7703    7.9429 C   0  0  0  0  0  0  0  0  0  0  0  0
   18.4802   -7.3506    6.7693 C   0  0  0  0  0  0  0  0  0  0  0  0
   19.0884   -6.5790    5.6438 C   0  0  0  0  0  0  0  0  0  0  0  0
   20.1976   -7.3666    4.9415 C   0  0  0  0  0  0  0  0  0  0  0  0
   21.2914   -7.8964    5.8772 C   0  0  0  0  0  0  0  0  0  0  0  0
   21.4630   -7.0295    7.1194 C   0  0  0  0  0  0  0  0  0  0  0  0
   20.5918   -7.5355    8.2709 C   0  0  0  0  0  0  0  0  0  0  0  0
   16.8562   -7.8187    6.8073 S   0  0  0  0  0  0  0  0  0  0  0  0
   18.5171   -9.0183   10.0624 C   0  0  0  0  0  0  0  0  0  0  0  0
   19.6640   -8.9669   10.5797 O   0  0  0  0  0  0  0  0  0  0  0  0
   17.5014   -9.6348   10.7303 N   0  0  0  0  0  0  0  0  0  0  0  0
   17.6793  -10.0346   11.6122 H   0  0  0  0  0  0  0  0  0  0  0  0
 13 14  1  0  0  0
 14 15  2  0  0  0
 14 16  2  0  0  0
 14  7  1  0  0  0
  7  8  2  0  0  0
  8  9  1  0  0  0
  9 10  2  0  0  0
 10  6  1  0  0  0
 10 11  1  0  0  0
  6  5  1  0  0  0
  5  1  1  0  0  0
  1  2  1  0  0  0
  2  3  2  0  0  0
  2 19  1  0  0  0
 19 20  1  0  0  0
 20 21  1  0  0  0
 21 22  2  0  0  0
 22 23  1  0  0  0
 23 24  2  0  0  0
 24 25  1  0  0  0
 24 33  1  0  0  0
 25 26  2  0  0  0
 26 27  1  0  0  0
 26 32  1  0  0  0
 27 28  1  0  0  0
 28 29  1  0  0  0
 29 30  1  0  0  0
 30 31  1  0  0  0
 31 25  1  0  0  0
 32 23  1  0  0  0
 33 34  2  0  0  0
 33 35  1  0  0  0
 35 21  1  0  0  0
 11 12  2  0  0  0
 12  7  1  0  0  0
 13 17  1  0  0  0
 13 18  1  0  0  0
  1  4  1  0  0  0
 35 36  1  0  0  0
M  END
>  <minimizedAffinity>
3.97771

>  <minimizedRMSD>
2.73159

$$$$
ChemDiv-8011-9951 MCULE-3965857964 MolPort-002-710-626 ZINC000032124962


 35 38  0  0  0  0  0  0  0  0999 V2000
   17.9118   -9.3638   10.4572 C   0  0  0  0  0  0  0  0  0  0  0  0
   18.8403   -8.5901    9.8125 N   0  0  0  0  0  0  0  0  0  0  0  0
   18.5833   -8.2179    8.5387 C   0  0  0  0  0  0  0  0  0  0  0  0
   19.3425   -7.4859    7.7163 N   0  0  0  0  0  0  0  0  0  0  0  0
   18.6402   -7.4412    6.6058 O   0  0  0  0  0  0  0  0  0  0  0  0
   17.4964   -8.0875    6.6538 N   0  0  0  0  0  0  0  0  0  0  0  0
   17.4692   -8.5861    7.8945 C   0  0  0  0  0  0  0  0  0  0  0  0
   16.5019   -9.3240    8.4835 N   0  0  0  0  0  0  0  0  0  0  0  0
   16.6883   -9.7100    9.7845 C   0  0  0  0  0  0  0  0  0  0  0  0
   18.2126   -9.8279   11.7761 N   0  0  0  0  0  0  0  0  0  0  0  0
   18.2296   -9.1799   12.5171 H   0  0  0  0  0  0  0  0  0  0  0  0
   18.3619  -11.7115   13.2266 C   0  0  0  0  0  0  0  0  0  0  0  0
   18.4839  -11.1767   12.0474 N   0  0  0  0  0  0  0  0  0  0  0  0
   17.6333  -11.0446   16.8597 C   0  0  0  0  0  0  0  0  0  0  0  0
   16.9241   -9.8352   16.8051 C   0  0  0  0  0  0  0  0  0  0  0  0
   16.4708   -9.2692   17.9919 O   0  0  0  0  0  0  0  0  0  0  0  0
   16.6776   -9.2116   15.5614 C   0  0  0  0  0  0  0  0  0  0  0  0
   17.1561   -9.8223   14.3929 C   0  0  0  0  0  0  0  0  0  0  0  0
   17.8705  -11.0245   14.4382 C   0  0  0  0  0  0  0  0  0  0  0  0
   18.0980  -11.6308   15.6734 C   0  0  0  0  0  0  0  0  0  0  0  0
   16.6419   -9.6944   18.8091 H   0  0  0  0  0  0  0  0  0  0  0  0
   15.9484   -7.9734   15.4579 N   0  0  0  0  0  0  0  0  0  0  0  0
   15.1279   -7.5380   16.4727 O   0  0  0  0  0  0  0  0  0  0  0  0
   16.0535   -7.2696   14.4315 O   0  0  0  0  0  0  0  0  0  0  0  0
   19.1673  -11.9193   18.5960 C   0  0  0  0  0  0  0  0  0  0  0  0
   17.8629  -11.6465   18.1019 O   0  0  0  0  0  0  0  0  0  0  0  0
   15.6302  -10.4188   10.4427 N   0  0  0  0  0  0  0  0  0  0  0  0
   15.8614  -11.2596   10.8998 H   0  0  0  0  0  0  0  0  0  0  0  0
   14.2597   -9.9959   10.4857 C   0  0  0  0  0  0  0  0  0  0  0  0
   13.3235  -10.7577   11.1995 C   0  0  0  0  0  0  0  0  0  0  0  0
   13.7084  -11.8837   11.8495 F   0  0  0  0  0  0  0  0  0  0  0  0
   11.9865  -10.3521   11.2582 C   0  0  0  0  0  0  0  0  0  0  0  0
   11.5750   -9.1919   10.5967 C   0  0  0  0  0  0  0  0  0  0  0  0
   12.4996   -8.4358    9.8723 C   0  0  0  0  0  0  0  0  0  0  0  0
   13.8365   -8.8376    9.8139 C   0  0  0  0  0  0  0  0  0  0  0  0
 25 26  1  0  0  0
 26 14  1  0  0  0
 14 15  2  0  0  0
 15 16  1  0  0  0
 15 17  1  0  0  0
 17 18  2  0  0  0
 17 22  1  0  0  0
 18 19  1  0  0  0
 19 12  1  0  0  0
 19 20  2  0  0  0
 12 13  2  0  0  0
 13 10  1  0  0  0
 10  1  1  0  0  0
  1  2  2  0  0  0
  2  3  1  0  0  0
  3  4  2  0  0  0
  4  5  1  0  0  0
  5  6  1  0  0  0
  6  7  2  0  0  0
  7  8  1  0  0  0
  7  3  1  0  0  0
  8  9  2  0  0  0
  9 27  1  0  0  0
  9  1  1  0  0  0
 27 29  1  0  0  0
 29 30  2  0  0  0
 30 31  1  0  0  0
 30 32  1  0  0  0
 32 33  2  0  0  0
 33 34  1  0  0  0
 34 35  2  0  0  0
 35 29  1  0  0  0
 20 14  1  0  0  0
 22 23  1  0  0  0
 22 24  2  0  0  0
 16 21  1  0  0  0
 10 11  1  0  0  0
 27 28  1  0  0  0
M  CHG 1  22   1
M  CHG 1  23  -1
M  END
>  <minimizedAffinity>
4.31145

>  <minimizedRMSD>
1.59671

$$$$
ChemDiv-G856-6813 MCULE-1273971919 MolPort-003-127-989 ZINC000012237586


 34 37  0  0  0  0  0  0  0  0999 V2000
   17.1167   -9.6510   10.8644 N   0  0  0  0  0  0  0  0  0  0  0  0
   16.1223  -10.4285   11.3478 C   0  0  0  0  0  0  0  0  0  0  0  0
   15.2801  -10.8058   10.3592 N   0  0  0  0  0  0  0  0  0  0  0  0
   15.7302  -10.2801    9.2255 N   0  0  0  0  0  0  0  0  0  0  0  0
   16.8386   -9.5962    9.5538 C   0  0  0  0  0  0  0  0  0  0  0  0
   17.6445   -8.9477    8.6789 N   0  0  0  0  0  0  0  0  0  0  0  0
   18.7699   -8.3365    9.1482 C   0  0  0  0  0  0  0  0  0  0  0  0
   19.5324   -7.7315    8.3510 O   0  0  0  0  0  0  0  0  0  0  0  0
   19.0841   -8.3776   10.5186 C   0  0  0  0  0  0  0  0  0  0  0  0
   18.2225   -9.0524   11.3987 C   0  0  0  0  0  0  0  0  0  0  0  0
   17.4216   -8.9181    7.7205 H   0  0  0  0  0  0  0  0  0  0  0  0
   18.5288   -9.0589   12.8361 C   0  0  0  0  0  0  0  0  0  0  0  0
   19.5845   -9.8409   13.3239 C   0  0  0  0  0  0  0  0  0  0  0  0
   19.9064   -9.8180   14.6841 C   0  0  0  0  0  0  0  0  0  0  0  0
   19.1798   -9.0072   15.5603 C   0  0  0  0  0  0  0  0  0  0  0  0
   18.1382   -8.2107   15.0755 C   0  0  0  0  0  0  0  0  0  0  0  0
   17.8193   -8.2289   13.7147 C   0  0  0  0  0  0  0  0  0  0  0  0
   15.9340  -10.9900   13.0385 S   0  0  0  0  0  0  0  0  0  0  0  0
   17.6476  -11.5875   13.1128 C   0  0  0  0  0  0  0  0  0  0  0  0
   17.7681  -12.6732   14.1284 C   0  0  0  0  0  0  0  0  0  0  0  0
   18.1352  -13.8166   13.7532 O   0  0  0  0  0  0  0  0  0  0  0  0
   17.5204  -12.4472   15.5229 N   0  0  0  0  0  0  0  0  0  0  0  0
   17.7642  -13.1833   16.1295 H   0  0  0  0  0  0  0  0  0  0  0  0
   16.9611  -11.2803   16.1425 C   0  0  0  0  0  0  0  0  0  0  0  0
   15.9067  -10.5589   15.5643 C   0  0  0  0  0  0  0  0  0  0  0  0
   15.3755   -9.4404   16.2118 C   0  0  0  0  0  0  0  0  0  0  0  0
   15.8884   -9.0283   17.4489 C   0  0  0  0  0  0  0  0  0  0  0  0
   16.9384   -9.7526   18.0289 C   0  0  0  0  0  0  0  0  0  0  0  0
   17.4688  -10.8711   17.3795 C   0  0  0  0  0  0  0  0  0  0  0  0
   15.3293   -7.8491   18.1323 C   0  0  0  0  0  0  0  0  0  0  0  0
   15.8341   -7.4447   19.4023 N   0  0  0  0  0  0  0  0  0  0  0  0
   14.4034   -7.1834   17.5969 O   0  0  0  0  0  0  0  0  0  0  0  0
   16.5576   -7.9573   19.8303 H   0  0  0  0  0  0  0  0  0  0  0  0
   15.4595   -6.6529   19.8515 H   0  0  0  0  0  0  0  0  0  0  0  0
  1  2  1  0  0  0
  2 18  1  0  0  0
 18 19  1  0  0  0
 19 20  1  0  0  0
 20 21  2  0  0  0
 20 22  1  0  0  0
 22 24  1  0  0  0
 24 25  2  0  0  0
 25 26  1  0  0  0
 26 27  2  0  0  0
 27 28  1  0  0  0
 28 29  2  0  0  0
 27 30  1  0  0  0
 30 31  1  0  0  0
 30 32  2  0  0  0
  2  3  2  0  0  0
  3  4  1  0  0  0
  4  5  2  0  0  0
  5  6  1  0  0  0
  6  7  1  0  0  0
  7  8  2  0  0  0
  7  9  1  0  0  0
  9 10  2  0  0  0
 10 12  1  0  0  0
 12 13  2  0  0  0
 13 14  1  0  0  0
 14 15  2  0  0  0
 15 16  1  0  0  0
 16 17  2  0  0  0
  5  1  1  0  0  0
 17 12  1  0  0  0
 10  1  1  0  0  0
 29 24  1  0  0  0
 22 23  1  0  0  0
 31 33  1  0  0  0
 31 34  1  0  0  0
  6 11  1  0  0  0
M  END
>  <minimizedAffinity>
5.26789

>  <minimizedRMSD>
2.98306

$$$$
ChemDiv-S565-0638 MolPort-044-349-397 ZINC000169785223


 31 35  0  0  0  0  0  0  0  0999 V2000
   16.6340   -9.2895    8.8552 C   0  0  0  0  0  0  0  0  0  0  0  0
   15.4414   -9.8461    8.5438 N   0  0  0  0  0  0  0  0  0  0  0  0
   14.7824  -10.0469    9.6758 N   0  0  0  0  0  0  0  0  0  0  0  0
   13.4749  -10.6753    9.7494 C   0  0  0  0  0  0  0  0  0  0  0  0
   15.5315   -9.6373   10.7133 C   0  0  0  0  0  0  0  0  0  0  0  0
   16.7273   -9.1690   10.2339 C   0  0  0  0  0  0  0  0  0  0  0  0
   17.8703   -8.7657   11.1111 C   0  0  0  0  0  0  0  0  0  0  0  0
   17.5882   -9.1270   12.5067 N   0  0  0  0  0  0  0  0  0  0  0  0
   16.2130   -9.0170   13.0168 C   0  0  0  0  0  0  0  0  0  0  0  0
   15.2431   -9.8481   12.1664 C   0  0  0  0  0  0  0  0  0  0  0  0
   18.6811   -9.2431   13.4320 C   0  0  0  0  0  0  0  0  0  0  0  0
   19.7957   -8.7248   13.1505 O   0  0  0  0  0  0  0  0  0  0  0  0
   18.5260   -9.9290   14.7326 C   0  0  0  0  0  0  0  0  0  0  0  0
   18.6301   -9.1894   15.8694 N   0  0  0  0  0  0  0  0  0  0  0  0
   18.4971   -9.7298   17.0815 N   0  0  0  0  0  0  0  0  0  0  0  0
   18.2582  -11.0548   17.2504 C   0  0  0  0  0  0  0  0  0  0  0  0
   18.1337  -11.5209   18.4148 O   0  0  0  0  0  0  0  0  0  0  0  0
   18.1637  -11.8851   16.1273 C   0  0  0  0  0  0  0  0  0  0  0  0
   17.9482  -13.2651   16.2602 C   0  0  0  0  0  0  0  0  0  0  0  0
   17.8899  -14.0814   15.1284 C   0  0  0  0  0  0  0  0  0  0  0  0
   18.0524  -13.5271   13.8573 C   0  0  0  0  0  0  0  0  0  0  0  0
   18.2645  -12.1540   13.7147 C   0  0  0  0  0  0  0  0  0  0  0  0
   18.3078  -11.3172   14.8416 C   0  0  0  0  0  0  0  0  0  0  0  0
   18.5743   -9.1519   17.8748 H   0  0  0  0  0  0  0  0  0  0  0  0
   18.7522   -8.2094    8.0275 N   0  0  0  0  0  0  0  0  0  0  0  0
   19.3547   -8.2033    6.8210 C   0  0  0  0  0  0  0  0  0  0  0  0
   18.6550   -8.9522    5.9452 N   0  0  0  0  0  0  0  0  0  0  0  0
   17.5970   -9.4332    6.5803 N   0  0  0  0  0  0  0  0  0  0  0  0
   17.6656   -8.9872    7.8469 C   0  0  0  0  0  0  0  0  0  0  0  0
   20.3980   -7.9395    9.8618 C   0  0  0  0  0  0  0  0  0  0  0  0
   19.1153   -7.4372    9.2158 C   0  0  0  0  0  0  0  0  0  0  0  0
 30 31  1  0  0  0
 31 25  1  0  0  0
 25 26  1  0  0  0
 26 27  2  0  0  0
 27 28  1  0  0  0
 28 29  2  0  0  0
 29  1  1  0  0  0
  1  2  2  0  0  0
  2  3  1  0  0  0
  3  4  1  0  0  0
  3  5  1  0  0  0
  5  6  2  0  0  0
  6  7  1  0  0  0
  7  8  1  0  0  0
  8  9  1  0  0  0
  9 10  1  0  0  0
  8 11  1  0  0  0
 11 12  2  0  0  0
 11 13  1  0  0  0
 13 14  2  0  0  0
 14 15  1  0  0  0
 15 16  1  0  0  0
 16 17  2  0  0  0
 16 18  1  0  0  0
 18 19  2  0  0  0
 19 20  1  0  0  0
 20 21  2  0  0  0
 21 22  1  0  0  0
 22 23  2  0  0  0
 29 25  1  0  0  0
  6  1  1  0  0  0
 23 13  1  0  0  0
 10  5  1  0  0  0
 23 18  1  0  0  0
 15 24  1  0  0  0
M  END
>  <minimizedAffinity>
5.36892

>  <minimizedRMSD>
2.37331

$$$$
ChemDiv-S434-0701 MolPort-039-024-097 PubChem-91891302 ZINC000169780177


 33 36  0  0  0  0  0  0  0  0999 V2000
   15.8813   -9.7560   12.5187 C   0  0  0  0  0  0  0  0  0  0  0  0
   14.6841  -10.1461   12.4639 O   0  0  0  0  0  0  0  0  0  0  0  0
   16.5312   -9.6002   13.7811 N   0  0  0  0  0  0  0  0  0  0  0  0
   17.4721   -9.3109   13.7999 H   0  0  0  0  0  0  0  0  0  0  0  0
   17.8919   -8.4916    5.6542 C   0  0  0  0  0  0  0  0  0  0  0  0
   17.9770   -8.6456    7.1296 C   0  0  0  0  0  0  0  0  0  0  0  0
   16.8416   -9.0028    7.8658 C   0  0  0  0  0  0  0  0  0  0  0  0
   16.9806   -9.1268    9.2072 N   0  0  0  0  0  0  0  0  0  0  0  0
   16.0285   -9.4493   10.0592 N   0  0  0  0  0  0  0  0  0  0  0  0
   16.6059   -9.4507   11.2809 C   0  0  0  0  0  0  0  0  0  0  0  0
   17.9600   -9.1200   11.2072 C   0  0  0  0  0  0  0  0  0  0  0  0
   18.1398   -8.9235    9.8496 C   0  0  0  0  0  0  0  0  0  0  0  0
   19.2916   -8.5653    9.1285 C   0  0  0  0  0  0  0  0  0  0  0  0
   19.1642   -8.4368    7.7730 N   0  0  0  0  0  0  0  0  0  0  0  0
   20.5685   -8.3323    9.7506 N   0  0  0  0  0  0  0  0  0  0  0  0
   21.8187   -8.6449    9.0874 C   0  0  0  0  0  0  0  0  0  0  0  0
   22.9139   -8.1548   10.0142 C   0  0  0  0  0  0  0  0  0  0  0  0
   22.2497   -7.8792   11.3544 C   0  0  0  0  0  0  0  0  0  0  0  0
   20.7602   -7.7952   11.0836 C   0  0  0  0  0  0  0  0  0  0  0  0
   15.8482   -9.8551   15.0396 C   0  0  0  0  0  0  0  0  0  0  0  0
   16.5817   -9.1551   16.1781 C   0  0  0  0  0  0  0  0  0  0  0  0
   15.6807   -8.4468   17.1526 C   0  0  0  0  0  0  0  0  0  0  0  0
   16.1032   -8.3282   18.4815 C   0  0  0  0  0  0  0  0  0  0  0  0
   15.3013   -7.6789   19.4243 C   0  0  0  0  0  0  0  0  0  0  0  0
   14.0665   -7.1425   19.0453 C   0  0  0  0  0  0  0  0  0  0  0  0
   13.6318   -7.2666   17.7216 C   0  0  0  0  0  0  0  0  0  0  0  0
   14.4343   -7.9157   16.7792 C   0  0  0  0  0  0  0  0  0  0  0  0
   13.0657   -6.3175   20.2254 S   0  0  0  0  0  0  0  0  0  0  0  0
   12.1781   -7.4777   21.1465 N   0  0  0  0  0  0  0  0  0  0  0  0
   13.9337   -5.5088   21.1472 O   0  0  0  0  0  0  0  0  0  0  0  0
   12.1124   -5.3949   19.5201 O   0  0  0  0  0  0  0  0  0  0  0  0
   12.8282   -8.1022   21.6238 H   0  0  0  0  0  0  0  0  0  0  0  0
   11.5802   -8.0208   20.5237 H   0  0  0  0  0  0  0  0  0  0  0  0
  5  6  1  0  0  0
  6  7  2  0  0  0
  7  8  1  0  0  0
  8  9  1  0  0  0
  9 10  2  0  0  0
 10  1  1  0  0  0
 10 11  1  0  0  0
  1  2  2  0  0  0
  1  3  1  0  0  0
  3 20  1  0  0  0
 20 21  1  0  0  0
 21 22  1  0  0  0
 22 23  2  0  0  0
 23 24  1  0  0  0
 24 25  2  0  0  0
 25 28  1  0  0  0
 25 26  1  0  0  0
 28 29  1  0  0  0
 28 30  2  0  0  0
 28 31  2  0  0  0
 26 27  2  0  0  0
 27 22  1  0  0  0
 11 12  2  0  0  0
 12 13  1  0  0  0
 12  8  1  0  0  0
 13 15  1  0  0  0
 13 14  2  0  0  0
 15 16  1  0  0  0
 16 17  1  0  0  0
 17 18  1  0  0  0
 18 19  1  0  0  0
 19 15  1  0  0  0
 14  6  1  0  0  0
  3  4  1  0  0  0
 29 32  1  0  0  0
 29 33  1  0  0  0
M  END
>  <minimizedAffinity>
5.74266

>  <minimizedRMSD>
3.29041

$$$$
ChemDiv-8018-9583 MCULE-2082412215 MolPort-002-747-685 PubChem-16763052 ZINC000012413677 ZINC12413677


 36 40  0  0  0  0  0  0  0  0999 V2000
   18.0746  -12.0107   13.6727 C   0  0  0  0  0  0  0  0  0  0  0  0
   17.7527  -13.2083   13.8933 O   0  0  0  0  0  0  0  0  0  0  0  0
   17.6557  -11.3430   12.4789 N   0  0  0  0  0  0  0  0  0  0  0  0
   17.9421  -10.4092   12.3558 H   0  0  0  0  0  0  0  0  0  0  0  0
   16.8525  -11.9289   11.4501 C   0  0  0  0  0  0  0  0  0  0  0  0
   16.0387  -12.9850   11.6190 N   0  0  0  0  0  0  0  0  0  0  0  0
   15.3931  -13.1017   10.4926 O   0  0  0  0  0  0  0  0  0  0  0  0
   15.7112  -12.1970    9.6073 N   0  0  0  0  0  0  0  0  0  0  0  0
   16.6523  -11.4299   10.1853 C   0  0  0  0  0  0  0  0  0  0  0  0
   17.2518  -10.2424    9.5476 C   0  0  0  0  0  0  0  0  0  0  0  0
   16.9491   -9.8860    8.2698 N   0  0  0  0  0  0  0  0  0  0  0  0
   17.7045   -8.7912    8.0705 C   0  0  0  0  0  0  0  0  0  0  0  0
   17.8003   -8.0266    6.9095 C   0  0  0  0  0  0  0  0  0  0  0  0
   18.6939   -6.9387    6.9215 C   0  0  0  0  0  0  0  0  0  0  0  0
   19.4622   -6.6520    8.0729 C   0  0  0  0  0  0  0  0  0  0  0  0
   19.3462   -7.4486    9.2281 C   0  0  0  0  0  0  0  0  0  0  0  0
   18.4453   -8.5120    9.1814 C   0  0  0  0  0  0  0  0  0  0  0  0
   18.1711   -9.4215   10.1254 N   0  0  0  0  0  0  0  0  0  0  0  0
   18.8634   -9.5845   11.3968 C   0  0  0  0  0  0  0  0  0  0  0  0
   18.8977  -11.2778   14.6711 C   0  0  0  0  0  0  0  0  0  0  0  0
   19.1110   -9.5499   14.1503 S   0  0  0  0  0  0  0  0  0  0  0  0
   16.8845   -8.7966   15.6500 N   0  0  0  0  0  0  0  0  0  0  0  0
   18.2218   -8.9347   15.5779 C   0  0  0  0  0  0  0  0  0  0  0  0
   18.8185   -8.5742   16.7289 N   0  0  0  0  0  0  0  0  0  0  0  0
   17.8546   -8.2041   17.5611 N   0  0  0  0  0  0  0  0  0  0  0  0
   16.6852   -8.3453   16.9043 C   0  0  0  0  0  0  0  0  0  0  0  0
   15.3718   -8.0392   17.4999 C   0  0  0  0  0  0  0  0  0  0  0  0
   14.1954   -8.0917   16.8509 N   0  0  0  0  0  0  0  0  0  0  0  0
   13.2901   -7.7412   17.7233 O   0  0  0  0  0  0  0  0  0  0  0  0
   13.7733   -7.4607   18.9022 N   0  0  0  0  0  0  0  0  0  0  0  0
   15.0965   -7.6449   18.7848 C   0  0  0  0  0  0  0  0  0  0  0  0
   16.0322   -7.4414   19.8382 N   0  0  0  0  0  0  0  0  0  0  0  0
   15.7186   -7.1559   20.7268 H   0  0  0  0  0  0  0  0  0  0  0  0
   16.9927   -7.5860   19.6782 H   0  0  0  0  0  0  0  0  0  0  0  0
   15.9958   -8.1789   13.4593 C   0  0  0  0  0  0  0  0  0  0  0  0
   15.8897   -9.1299   14.6372 C   0  0  0  0  0  0  0  0  0  0  0  0
 35 36  1  0  0  0
 36 22  1  0  0  0
 22 23  1  0  0  0
 23 21  1  0  0  0
 23 24  2  0  0  0
 21 20  1  0  0  0
 20  1  1  0  0  0
  1  2  2  0  0  0
  1  3  1  0  0  0
  3  5  1  0  0  0
  5  6  2  0  0  0
  6  7  1  0  0  0
  7  8  1  0  0  0
  8  9  2  0  0  0
  9 10  1  0  0  0
  9  5  1  0  0  0
 10 11  2  0  0  0
 11 12  1  0  0  0
 12 13  2  0  0  0
 13 14  1  0  0  0
 14 15  2  0  0  0
 15 16  1  0  0  0
 16 17  2  0  0  0
 17 18  1  0  0  0
 17 12  1  0  0  0
 18 19  1  0  0  0
 18 10  1  0  0  0
 24 25  1  0  0  0
 25 26  2  0  0  0
 26 27  1  0  0  0
 26 22  1  0  0  0
 27 28  2  0  0  0
 28 29  1  0  0  0
 29 30  1  0  0  0
 30 31  2  0  0  0
 31 32  1  0  0  0
 31 27  1  0  0  0
  3  4  1  0  0  0
 32 33  1  0  0  0
 32 34  1  0  0  0
M  END
>  <minimizedAffinity>
6.45166

>  <minimizedRMSD>
2.07898

$$$$
ChemDiv-G754-0415 MCULE-1184418518 MolPort-008-309-736 ZINC000020394328


 35 39  0  0  0  0  0  0  0  0999 V2000
   16.0902   -9.1584   16.8618 C   0  0  0  0  0  0  0  0  0  0  0  0
   16.0343   -9.0091   18.2091 N   0  0  0  0  0  0  0  0  0  0  0  0
   15.2006   -8.0518   18.7177 C   0  0  0  0  0  0  0  0  0  0  0  0
   14.4426   -7.2724   17.8812 N   0  0  0  0  0  0  0  0  0  0  0  0
   14.4972   -7.4306   16.5262 C   0  0  0  0  0  0  0  0  0  0  0  0
   13.7960   -6.7123   15.7666 O   0  0  0  0  0  0  0  0  0  0  0  0
   15.3459   -8.4049   16.0201 C   0  0  0  0  0  0  0  0  0  0  0  0
   15.5708   -8.7572   14.7434 N   0  0  0  0  0  0  0  0  0  0  0  0
   16.4826   -9.7606   14.8663 C   0  0  0  0  0  0  0  0  0  0  0  0
   16.8245  -10.0388   16.1605 N   0  0  0  0  0  0  0  0  0  0  0  0
   13.8490   -6.5870   18.2647 H   0  0  0  0  0  0  0  0  0  0  0  0
   17.7520  -11.0173   16.6747 C   0  0  0  0  0  0  0  0  0  0  0  0
   18.1651  -12.1028   15.8868 C   0  0  0  0  0  0  0  0  0  0  0  0
   19.0556  -13.0536   16.3928 C   0  0  0  0  0  0  0  0  0  0  0  0
   19.5410  -12.9309   17.6965 C   0  0  0  0  0  0  0  0  0  0  0  0
   19.1337  -11.8593   18.4943 C   0  0  0  0  0  0  0  0  0  0  0  0
   18.2433  -10.9094   17.9860 C   0  0  0  0  0  0  0  0  0  0  0  0
   20.4879  -13.9412   18.2356 C   0  0  0  0  0  0  0  0  0  0  0  0
   17.1943  -10.5568   13.4224 S   0  0  0  0  0  0  0  0  0  0  0  0
   16.8430   -9.1362   12.3396 C   0  0  0  0  0  0  0  0  0  0  0  0
   16.4325   -9.5961   10.9834 C   0  0  0  0  0  0  0  0  0  0  0  0
   15.4954  -10.4299   10.8695 O   0  0  0  0  0  0  0  0  0  0  0  0
   17.0997   -9.0867    9.8259 N   0  0  0  0  0  0  0  0  0  0  0  0
   17.8324   -8.4410    9.9509 H   0  0  0  0  0  0  0  0  0  0  0  0
   16.7430   -9.4811    8.4701 C   0  0  0  0  0  0  0  0  0  0  0  0
   17.7274   -8.9274    7.4916 C   0  0  0  0  0  0  0  0  0  0  0  0
   18.7689   -8.1320    7.8389 N   0  0  0  0  0  0  0  0  0  0  0  0
   19.1258   -7.6554    9.1664 C   0  0  0  0  0  0  0  0  0  0  0  0
   19.3949   -7.8780    6.6833 C   0  0  0  0  0  0  0  0  0  0  0  0
   18.7303   -8.5151    5.6750 C   0  0  0  0  0  0  0  0  0  0  0  0
   19.1522   -8.4348    4.3504 C   0  0  0  0  0  0  0  0  0  0  0  0
   20.3002   -7.6657    4.0815 C   0  0  0  0  0  0  0  0  0  0  0  0
   20.9864   -7.0068    5.1267 C   0  0  0  0  0  0  0  0  0  0  0  0
   20.5345   -7.1080    6.4556 C   0  0  0  0  0  0  0  0  0  0  0  0
   17.6687   -9.1887    6.1584 N   0  0  0  0  0  0  0  0  0  0  0  0
  1  2  1  0  0  0
  2  3  2  0  0  0
  3  4  1  0  0  0
  4  5  1  0  0  0
  5  6  2  0  0  0
  5  7  1  0  0  0
  7  8  1  0  0  0
  8  9  2  0  0  0
  9 19  1  0  0  0
 19 20  1  0  0  0
 20 21  1  0  0  0
 21 22  2  0  0  0
 21 23  1  0  0  0
 23 25  1  0  0  0
 25 26  1  0  0  0
 26 27  1  0  0  0
 27 28  1  0  0  0
 27 29  1  0  0  0
 29 30  2  0  0  0
 30 31  1  0  0  0
 31 32  2  0  0  0
 32 33  1  0  0  0
 33 34  2  0  0  0
 30 35  1  0  0  0
  9 10  1  0  0  0
 10 12  1  0  0  0
 12 13  2  0  0  0
 13 14  1  0  0  0
 14 15  2  0  0  0
 15 16  1  0  0  0
 16 17  2  0  0  0
 15 18  1  0  0  0
  7  1  2  0  0  0
 35 26  2  0  0  0
 17 12  1  0  0  0
 10  1  1  0  0  0
 34 29  1  0  0  0
  4 11  1  0  0  0
 23 24  1  0  0  0
M  END
>  <minimizedAffinity>
6.61294

>  <minimizedRMSD>
2.22567

$$$$
ChemDiv-K292-1690 CHEMBL1449450 MCULE-4984705013 MolPort-007-917-361 PubChem-3566815 ZINC000002932283 ZINC02932283


 33 36  0  0  0  0  0  0  0  0999 V2000
   16.5403   -9.0530   12.3719 N   0  0  0  0  0  0  0  0  0  0  0  0
   16.2230  -10.0386   11.3870 C   0  0  0  0  0  0  0  0  0  0  0  0
   16.6825  -11.2083   11.4766 O   0  0  0  0  0  0  0  0  0  0  0  0
   16.1968   -8.1387   12.2483 H   0  0  0  0  0  0  0  0  0  0  0  0
   17.3482   -9.3376   13.5507 C   0  0  0  0  0  0  0  0  0  0  0  0
   16.6094  -10.2690   14.5045 C   0  0  0  0  0  0  0  0  0  0  0  0
   15.3198   -8.1192   17.9878 C   0  0  0  0  0  0  0  0  0  0  0  0
   16.3326   -9.0791   18.0926 C   0  0  0  0  0  0  0  0  0  0  0  0
   16.7492   -9.7851   16.9604 C   0  0  0  0  0  0  0  0  0  0  0  0
   16.1500   -9.5367   15.7203 C   0  0  0  0  0  0  0  0  0  0  0  0
   15.1363   -8.5781   15.6153 C   0  0  0  0  0  0  0  0  0  0  0  0
   14.7202   -7.8725   16.7477 C   0  0  0  0  0  0  0  0  0  0  0  0
   13.7623   -8.2517   20.3631 N   0  0  0  0  0  0  0  0  0  0  0  0
   14.7908   -7.2424   19.4116 S   0  0  0  0  0  0  0  0  0  0  0  0
   14.0382   -6.0091   18.9979 O   0  0  0  0  0  0  0  0  0  0  0  0
   15.9855   -6.8326   20.2255 O   0  0  0  0  0  0  0  0  0  0  0  0
   13.4555   -7.7405   21.1907 H   0  0  0  0  0  0  0  0  0  0  0  0
   14.2748   -9.0858   20.6494 H   0  0  0  0  0  0  0  0  0  0  0  0
   15.3641   -9.6680   10.2282 C   0  0  0  0  0  0  0  0  0  0  0  0
   16.0818  -10.2805    8.6709 S   0  0  0  0  0  0  0  0  0  0  0  0
   17.6049   -9.3422    8.8741 C   0  0  0  0  0  0  0  0  0  0  0  0
   18.2875   -9.4985   10.0463 N   0  0  0  0  0  0  0  0  0  0  0  0
   19.3951   -8.7631   10.2899 C   0  0  0  0  0  0  0  0  0  0  0  0
   19.8278   -7.8407    9.3766 C   0  0  0  0  0  0  0  0  0  0  0  0
   21.1831   -7.0672    9.9830 S   0  0  0  0  0  0  0  0  0  0  0  0
   21.2291   -7.9264   11.4443 C   0  0  0  0  0  0  0  0  0  0  0  0
   20.1610   -8.8302   11.4559 C   0  0  0  0  0  0  0  0  0  0  0  0
   19.1524   -7.6654    8.1769 C   0  0  0  0  0  0  0  0  0  0  0  0
   19.5383   -6.7818    7.3635 O   0  0  0  0  0  0  0  0  0  0  0  0
   18.0596   -8.4610    7.9066 N   0  0  0  0  0  0  0  0  0  0  0  0
   17.3144   -8.2896    6.6456 C   0  0  0  0  0  0  0  0  0  0  0  0
   18.2585   -8.0582    5.4687 C   0  0  0  0  0  0  0  0  0  0  0  0
   17.6433   -9.4162    5.6716 C   0  0  0  0  0  0  0  0  0  0  0  0
 13 14  1  0  0  0
 14 15  2  0  0  0
 14 16  2  0  0  0
 14  7  1  0  0  0
  7  8  2  0  0  0
  8  9  1  0  0  0
  9 10  2  0  0  0
 10  6  1  0  0  0
 10 11  1  0  0  0
  6  5  1  0  0  0
  5  1  1  0  0  0
  1  2  1  0  0  0
  2  3  2  0  0  0
  2 19  1  0  0  0
 19 20  1  0  0  0
 20 21  1  0  0  0
 21 22  2  0  0  0
 22 23  1  0  0  0
 23 24  2  0  0  0
 24 25  1  0  0  0
 24 28  1  0  0  0
 25 26  1  0  0  0
 26 27  2  0  0  0
 27 23  1  0  0  0
 28 29  2  0  0  0
 28 30  1  0  0  0
 30 31  1  0  0  0
 30 21  1  0  0  0
 31 32  1  0  0  0
 32 33  1  0  0  0
 33 31  1  0  0  0
 11 12  2  0  0  0
 12  7  1  0  0  0
 13 17  1  0  0  0
 13 18  1  0  0  0
  1  4  1  0  0  0
M  END
>  <minimizedAffinity>
6.79491

>  <minimizedRMSD>
3.11159

$$$$
ChemDiv-L466-0053 MCULE-8896993172 MolPort-010-869-342 PubChem-53112170 ZINC000065031435 ZINC65031435


 30 33  0  0  0  0  0  0  0  0999 V2000
   16.0195   -8.0931   13.7725 C   0  0  0  0  0  0  0  0  0  0  0  0
   16.8079   -7.1572   13.0977 C   0  0  0  0  0  0  0  0  0  0  0  0
   17.1782   -7.3739   11.7677 C   0  0  0  0  0  0  0  0  0  0  0  0
   16.7631   -8.5307   11.0915 C   0  0  0  0  0  0  0  0  0  0  0  0
   15.9653   -9.4656   11.7696 C   0  0  0  0  0  0  0  0  0  0  0  0
   15.5951   -9.2489   13.0989 C   0  0  0  0  0  0  0  0  0  0  0  0
   17.1654   -8.7535    9.6866 C   0  0  0  0  0  0  0  0  0  0  0  0
   16.5863   -9.7792    8.9226 C   0  0  0  0  0  0  0  0  0  0  0  0
   16.9731   -9.9664    7.6328 N   0  0  0  0  0  0  0  0  0  0  0  0
   17.9170   -9.1736    7.0641 C   0  0  0  0  0  0  0  0  0  0  0  0
   18.3089   -9.3729    5.7377 C   0  0  0  0  0  0  0  0  0  0  0  0
   19.2834   -8.5459    5.1688 C   0  0  0  0  0  0  0  0  0  0  0  0
   19.8655   -7.5212    5.9243 C   0  0  0  0  0  0  0  0  0  0  0  0
   19.4761   -7.3182    7.2526 C   0  0  0  0  0  0  0  0  0  0  0  0
   18.5032   -8.1419    7.8247 C   0  0  0  0  0  0  0  0  0  0  0  0
   18.1131   -7.9595    9.1125 N   0  0  0  0  0  0  0  0  0  0  0  0
   15.6765   -7.8529   15.1080 O   0  0  0  0  0  0  0  0  0  0  0  0
   14.7951   -8.6888   15.8528 C   0  0  0  0  0  0  0  0  0  0  0  0
   16.8467   -9.9137   16.6743 N   0  0  0  0  0  0  0  0  0  0  0  0
   15.4849   -9.9532   16.2370 C   0  0  0  0  0  0  0  0  0  0  0  0
   14.8516  -11.0416   16.2023 O   0  0  0  0  0  0  0  0  0  0  0  0
   17.2163   -9.0397   16.9365 H   0  0  0  0  0  0  0  0  0  0  0  0
   18.1883  -11.7299   15.6110 C   0  0  0  0  0  0  0  0  0  0  0  0
   17.7125  -11.0530   16.7587 C   0  0  0  0  0  0  0  0  0  0  0  0
   18.1520  -11.4566   18.0245 C   0  0  0  0  0  0  0  0  0  0  0  0
   19.0116  -12.5484   18.1644 C   0  0  0  0  0  0  0  0  0  0  0  0
   19.4520  -13.2392   17.0346 C   0  0  0  0  0  0  0  0  0  0  0  0
   19.0455  -12.8283   15.7635 C   0  0  0  0  0  0  0  0  0  0  0  0
   18.9273  -10.4146   13.6417 C   0  0  0  0  0  0  0  0  0  0  0  0
   17.8309  -11.2852   14.2279 C   0  0  0  0  0  0  0  0  0  0  0  0
 29 30  1  0  0  0
 30 23  1  0  0  0
 23 24  2  0  0  0
 24 19  1  0  0  0
 24 25  1  0  0  0
 19 20  1  0  0  0
 20 21  2  0  0  0
 20 18  1  0  0  0
 18 17  1  0  0  0
 17  1  1  0  0  0
  1  2  2  0  0  0
  2  3  1  0  0  0
  3  4  2  0  0  0
  4  5  1  0  0  0
  4  7  1  0  0  0
  5  6  2  0  0  0
  6  1  1  0  0  0
  7  8  2  0  0  0
  8  9  1  0  0  0
  9 10  2  0  0  0
 10 11  1  0  0  0
 11 12  2  0  0  0
 12 13  1  0  0  0
 13 14  2  0  0  0
 14 15  1  0  0  0
 15 16  2  0  0  0
 15 10  1  0  0  0
 16  7  1  0  0  0
 25 26  2  0  0  0
 26 27  1  0  0  0
 27 28  2  0  0  0
 28 23  1  0  0  0
 19 22  1  0  0  0
M  END
>  <minimizedAffinity>
8.45963

>  <minimizedRMSD>
1.60848

$$$$
ChemDiv-L948-1371 MCULE-8145661060 MolPort-010-968-956 PubChem-53206115


 31 34  0  0  0  0  0  0  0  0999 V2000
   16.1828  -10.7928   12.0764 C   0  0  0  0  0  0  0  0  0  0  0  0
   15.9592  -11.7771   12.8306 O   0  0  0  0  0  0  0  0  0  0  0  0
   15.1415  -10.2878   11.2266 N   0  0  0  0  0  0  0  0  0  0  0  0
   13.7959  -10.8250   11.2415 C   0  0  0  0  0  0  0  0  0  0  0  0
   13.0122  -10.0049   10.2341 C   0  0  0  0  0  0  0  0  0  0  0  0
   13.8735   -8.7949    9.8964 C   0  0  0  0  0  0  0  0  0  0  0  0
   15.2763   -9.1142   10.3818 C   0  0  0  0  0  0  0  0  0  0  0  0
   16.1697   -9.4057    9.2198 C   0  0  0  0  0  0  0  0  0  0  0  0
   16.8225   -8.4553    8.5261 N   0  0  0  0  0  0  0  0  0  0  0  0
   17.4815   -9.2012    7.6134 C   0  0  0  0  0  0  0  0  0  0  0  0
   17.2378  -10.5204    7.7510 N   0  0  0  0  0  0  0  0  0  0  0  0
   16.4214  -10.6053    8.7562 O   0  0  0  0  0  0  0  0  0  0  0  0
   18.3698   -8.6365    6.5859 C   0  0  0  0  0  0  0  0  0  0  0  0
   18.8842   -7.3403    6.7311 C   0  0  0  0  0  0  0  0  0  0  0  0
   19.7294   -6.8034    5.7556 C   0  0  0  0  0  0  0  0  0  0  0  0
   20.2705   -5.4289    5.9171 C   0  0  0  0  0  0  0  0  0  0  0  0
   20.0653   -7.5591    4.6291 C   0  0  0  0  0  0  0  0  0  0  0  0
   19.5563   -8.8520    4.4777 C   0  0  0  0  0  0  0  0  0  0  0  0
   18.7111   -9.3891    5.4533 C   0  0  0  0  0  0  0  0  0  0  0  0
   17.5353  -10.1538   12.1043 C   0  0  0  0  0  0  0  0  0  0  0  0
   18.4152   -8.6745   16.0427 C   0  0  0  0  0  0  0  0  0  0  0  0
   17.2370   -8.2875   15.3855 C   0  0  0  0  0  0  0  0  0  0  0  0
   16.9535   -8.7656   14.1034 C   0  0  0  0  0  0  0  0  0  0  0  0
   17.8462   -9.6333   13.4664 C   0  0  0  0  0  0  0  0  0  0  0  0
   19.0207  -10.0243   14.1179 C   0  0  0  0  0  0  0  0  0  0  0  0
   19.3027   -9.5449   15.4004 C   0  0  0  0  0  0  0  0  0  0  0  0
   18.3368   -7.3711   19.7008 C   0  0  0  0  0  0  0  0  0  0  0  0
   17.8156   -7.8396   18.3907 C   0  0  0  0  0  0  0  0  0  0  0  0
   16.5712   -7.9078   18.2102 O   0  0  0  0  0  0  0  0  0  0  0  0
   18.7400   -8.2048   17.3583 N   0  0  0  0  0  0  0  0  0  0  0  0
   19.6972   -8.1251   17.5746 H   0  0  0  0  0  0  0  0  0  0  0  0
 27 28  1  0  0  0
 28 29  2  0  0  0
 28 30  1  0  0  0
 30 21  1  0  0  0
 21 22  2  0  0  0
 22 23  1  0  0  0
 23 24  2  0  0  0
 24 20  1  0  0  0
 24 25  1  0  0  0
 20  1  1  0  0  0
  1  2  2  0  0  0
  1  3  1  0  0  0
  3  4  1  0  0  0
  4  5  1  0  0  0
  5  6  1  0  0  0
  6  7  1  0  0  0
  7  8  1  0  0  0
  7  3  1  0  0  0
  8  9  2  0  0  0
  9 10  1  0  0  0
 10 11  2  0  0  0
 10 13  1  0  0  0
 11 12  1  0  0  0
 12  8  1  0  0  0
 13 14  2  0  0  0
 14 15  1  0  0  0
 15 16  1  0  0  0
 15 17  2  0  0  0
 17 18  1  0  0  0
 18 19  2  0  0  0
 19 13  1  0  0  0
 25 26  2  0  0  0
 26 21  1  0  0  0
 30 31  1  0  0  0
M  END
>  <minimizedAffinity>
9.36193

>  <minimizedRMSD>
2.13920

$$$$
ChemDiv-S497-1367 MolPort-044-346-486 ZINC000169777169


 34 39  0  0  0  0  0  0  0  0999 V2000
   18.3057   -8.1020   10.5451 O   0  0  0  0  0  0  0  0  0  0  0  0
   16.2554   -7.2684   15.2513 O   0  0  0  0  0  0  0  0  0  0  0  0
   16.7277   -8.3016   14.7079 C   0  0  0  0  0  0  0  0  0  0  0  0
   16.8931   -8.3251   13.2894 N   0  0  0  0  0  0  0  0  0  0  0  0
   16.7587   -7.3635   12.1867 C   0  0  0  0  0  0  0  0  0  0  0  0
   17.0127   -8.3338   11.0879 C   0  0  0  0  0  0  0  0  0  0  0  0
   17.1197   -9.2998   12.2132 C   0  0  0  0  0  0  0  0  0  0  0  0
   17.0586   -9.4646   15.5504 C   0  0  0  0  0  0  0  0  0  0  0  0
   16.9848   -9.4466   16.9031 N   0  0  0  0  0  0  0  0  0  0  0  0
   17.3767  -10.6243   17.3809 N   0  0  0  0  0  0  0  0  0  0  0  0
   17.7096  -11.3902   16.3292 C   0  0  0  0  0  0  0  0  0  0  0  0
   18.2078  -12.6903   16.3527 C   0  0  0  0  0  0  0  0  0  0  0  0
   18.5329  -13.2817   15.1179 C   0  0  0  0  0  0  0  0  0  0  0  0
   18.3642  -12.5658   13.9118 C   0  0  0  0  0  0  0  0  0  0  0  0
   17.8626  -11.2515   13.9244 C   0  0  0  0  0  0  0  0  0  0  0  0
   17.5308  -10.7020   15.1614 C   0  0  0  0  0  0  0  0  0  0  0  0
   17.4156  -10.8858   18.3293 H   0  0  0  0  0  0  0  0  0  0  0  0
   18.5593   -8.1878    9.1740 C   0  0  0  0  0  0  0  0  0  0  0  0
   17.7179   -8.8958    8.2786 C   0  0  0  0  0  0  0  0  0  0  0  0
   18.0034   -8.8628    6.9057 C   0  0  0  0  0  0  0  0  0  0  0  0
   19.1172   -8.1733    6.4233 C   0  0  0  0  0  0  0  0  0  0  0  0
   19.9668   -7.5148    7.3117 C   0  0  0  0  0  0  0  0  0  0  0  0
   19.6887   -7.5254    8.6794 C   0  0  0  0  0  0  0  0  0  0  0  0
   16.5966   -9.7409    8.7334 C   0  0  0  0  0  0  0  0  0  0  0  0
   15.5644   -9.2856    9.4718 N   0  0  0  0  0  0  0  0  0  0  0  0
   14.8128  -10.3997    9.5994 C   0  0  0  0  0  0  0  0  0  0  0  0
   15.3545  -11.4611    8.9698 N   0  0  0  0  0  0  0  0  0  0  0  0
   16.4529  -11.0116    8.4450 O   0  0  0  0  0  0  0  0  0  0  0  0
   13.5425  -10.4487   10.3400 C   0  0  0  0  0  0  0  0  0  0  0  0
   13.4083  -11.2801   11.4609 C   0  0  0  0  0  0  0  0  0  0  0  0
   12.2013  -11.3256   12.1650 C   0  0  0  0  0  0  0  0  0  0  0  0
   11.1214  -10.5401   11.7524 C   0  0  0  0  0  0  0  0  0  0  0  0
   11.2481   -9.7090   10.6358 C   0  0  0  0  0  0  0  0  0  0  0  0
   12.4552   -9.6633    9.9317 C   0  0  0  0  0  0  0  0  0  0  0  0
  2  3  2  0  0  0
  3  4  1  0  0  0
  4  5  1  0  0  0
  5  6  1  0  0  0
  6  7  1  0  0  0
  6  1  1  0  0  0
  1 18  1  0  0  0
 18 19  1  0  0  0
 19 20  2  0  0  0
 20 21  1  0  0  0
 21 22  2  0  0  0
 22 23  1  0  0  0
 19 24  1  0  0  0
 24 25  2  0  0  0
 25 26  1  0  0  0
 26 27  2  0  0  0
 27 28  1  0  0  0
 26 29  1  0  0  0
 29 30  2  0  0  0
 30 31  1  0  0  0
 31 32  2  0  0  0
 32 33  1  0  0  0
 33 34  2  0  0  0
  3  8  1  0  0  0
  8  9  2  0  0  0
  9 10  1  0  0  0
 10 11  1  0  0  0
 11 12  2  0  0  0
 12 13  1  0  0  0
 13 14  2  0  0  0
 14 15  1  0  0  0
 15 16  2  0  0  0
  7  4  1  0  0  0
 23 18  2  0  0  0
 28 24  1  0  0  0
 34 29  1  0  0  0
 16  8  1  0  0  0
 16 11  1  0  0  0
 10 17  1  0  0  0
M  END
>  <minimizedAffinity>
10.02574

>  <minimizedRMSD>
2.47027

$$$$
ChemDiv-V010-4708 MolPort-006-604-373 PubChem-46064644


 38 43  0  0  0  0  0  0  0  0999 V2000
   17.2638   -8.9491   11.3787 C   0  0  0  0  0  0  0  0  0  0  0  0
   18.4722   -8.4306   11.0095 N   0  0  0  0  0  0  0  0  0  0  0  0
   18.8557   -8.3862    9.6998 C   0  0  0  0  0  0  0  0  0  0  0  0
   20.0988   -7.8532    9.3482 C   0  0  0  0  0  0  0  0  0  0  0  0
   20.4776   -7.7912    8.0025 C   0  0  0  0  0  0  0  0  0  0  0  0
   19.6153   -8.2587    7.0036 C   0  0  0  0  0  0  0  0  0  0  0  0
   18.3679   -8.7924    7.3431 C   0  0  0  0  0  0  0  0  0  0  0  0
   17.9867   -8.8560    8.6875 C   0  0  0  0  0  0  0  0  0  0  0  0
   16.7679   -9.3850    9.1014 C   0  0  0  0  0  0  0  0  0  0  0  0
   15.8036   -9.9002    8.3168 N   0  0  0  0  0  0  0  0  0  0  0  0
   14.8507  -10.3312    9.1354 N   0  0  0  0  0  0  0  0  0  0  0  0
   15.2474  -10.0680   10.4012 C   0  0  0  0  0  0  0  0  0  0  0  0
   16.4510   -9.4525   10.4031 N   0  0  0  0  0  0  0  0  0  0  0  0
   17.9111   -9.9872   16.1526 C   0  0  0  0  0  0  0  0  0  0  0  0
   16.9304   -9.6974   15.0276 C   0  0  0  0  0  0  0  0  0  0  0  0
   17.7310   -9.2637   13.8025 C   0  0  0  0  0  0  0  0  0  0  0  0
   16.8305   -8.8328   12.7374 N   0  0  0  0  0  0  0  0  0  0  0  0
   15.8305   -7.8190   13.0617 C   0  0  0  0  0  0  0  0  0  0  0  0
   15.0245   -8.2604   14.2767 C   0  0  0  0  0  0  0  0  0  0  0  0
   15.9235   -8.6678   15.3542 N   0  0  0  0  0  0  0  0  0  0  0  0
   15.7210   -8.0813   16.6542 C   0  0  0  0  0  0  0  0  0  0  0  0
   15.2297   -6.9228   16.7445 O   0  0  0  0  0  0  0  0  0  0  0  0
   16.0172   -8.8186   17.8449 N   0  0  0  0  0  0  0  0  0  0  0  0
   16.4294   -9.7082   17.7564 H   0  0  0  0  0  0  0  0  0  0  0  0
   15.7362   -8.3123   19.1815 C   0  0  0  0  0  0  0  0  0  0  0  0
   14.3580   -7.7461   19.2429 C   0  0  0  0  0  0  0  0  0  0  0  0
   14.0988   -6.6206   20.0327 C   0  0  0  0  0  0  0  0  0  0  0  0
   12.8103   -6.0795   20.0794 C   0  0  0  0  0  0  0  0  0  0  0  0
   11.7800   -6.6617   19.3347 C   0  0  0  0  0  0  0  0  0  0  0  0
   12.0379   -7.7848   18.5426 C   0  0  0  0  0  0  0  0  0  0  0  0
   13.3263   -8.3262   18.4956 C   0  0  0  0  0  0  0  0  0  0  0  0
   14.5320  -10.5895   11.5784 C   0  0  0  0  0  0  0  0  0  0  0  0
   13.1289  -10.6762   11.5858 C   0  0  0  0  0  0  0  0  0  0  0  0
   12.4007  -10.2221   10.5353 F   0  0  0  0  0  0  0  0  0  0  0  0
   12.4673  -11.2178   12.6924 C   0  0  0  0  0  0  0  0  0  0  0  0
   13.1974  -11.6923   13.7853 C   0  0  0  0  0  0  0  0  0  0  0  0
   14.5927  -11.6302   13.7729 C   0  0  0  0  0  0  0  0  0  0  0  0
   15.2573  -11.0862   12.6706 C   0  0  0  0  0  0  0  0  0  0  0  0
 14 15  1  0  0  0
 15 16  1  0  0  0
 16 17  1  0  0  0
 17 18  1  0  0  0
 18 19  1  0  0  0
 19 20  1  0  0  0
 20 21  1  0  0  0
 21 22  2  0  0  0
 21 23  1  0  0  0
 23 25  1  0  0  0
 25 26  1  0  0  0
 26 27  2  0  0  0
 27 28  1  0  0  0
 28 29  2  0  0  0
 29 30  1  0  0  0
 30 31  2  0  0  0
 17  1  1  0  0  0
  1  2  2  0  0  0
  2  3  1  0  0  0
  3  4  2  0  0  0
  4  5  1  0  0  0
  5  6  2  0  0  0
  6  7  1  0  0  0
  7  8  2  0  0  0
  8  9  1  0  0  0
  9 10  2  0  0  0
 10 11  1  0  0  0
 11 12  2  0  0  0
 12 13  1  0  0  0
 12 32  1  0  0  0
 32 33  2  0  0  0
 33 34  1  0  0  0
 33 35  1  0  0  0
 35 36  2  0  0  0
 36 37  1  0  0  0
 37 38  2  0  0  0
 20 15  1  0  0  0
 31 26  1  0  0  0
 13  1  1  0  0  0
 38 32  1  0  0  0
  8  3  1  0  0  0
 13  9  1  0  0  0
 23 24  1  0  0  0
M  END
>  <minimizedAffinity>
12.46440

>  <minimizedRMSD>
0.97501

$$$$
ChemDiv-C700-2373 MCULE-1453802764 MolPort-007-660-170 PubChem-46259483 ZINC000021780176 ZINC21780176


 34 38  0  0  0  0  0  0  0  0999 V2000
   15.7671   -8.3834   13.0630 N   0  0  0  0  0  0  0  0  0  0  0  0
   16.0660   -9.7647   12.6741 C   0  0  0  0  0  0  0  0  0  0  0  0
   15.7760   -9.9636   11.1899 C   0  0  0  0  0  0  0  0  0  0  0  0
   16.5336   -8.9764   10.4281 N   0  0  0  0  0  0  0  0  0  0  0  0
   16.3785   -7.5800   10.8247 C   0  0  0  0  0  0  0  0  0  0  0  0
   16.6348   -7.4605   12.3246 C   0  0  0  0  0  0  0  0  0  0  0  0
   17.3962   -9.4007    9.3536 C   0  0  0  0  0  0  0  0  0  0  0  0
   17.7233  -10.7234    9.2371 N   0  0  0  0  0  0  0  0  0  0  0  0
   18.5388  -11.1860    8.2467 C   0  0  0  0  0  0  0  0  0  0  0  0
   18.8488  -12.5455    8.1604 C   0  0  0  0  0  0  0  0  0  0  0  0
   19.6895  -13.0054    7.1411 C   0  0  0  0  0  0  0  0  0  0  0  0
   20.2219  -12.1088    6.2071 C   0  0  0  0  0  0  0  0  0  0  0  0
   19.9169  -10.7463    6.2863 C   0  0  0  0  0  0  0  0  0  0  0  0
   19.0747  -10.2800    7.3051 C   0  0  0  0  0  0  0  0  0  0  0  0
   18.7482   -8.9669    7.4330 N   0  0  0  0  0  0  0  0  0  0  0  0
   19.1405   -7.9215    6.6850 C   0  0  0  0  0  0  0  0  0  0  0  0
   18.5682   -6.7690    7.2069 C   0  0  0  0  0  0  0  0  0  0  0  0
   17.8044   -7.1400    8.3103 C   0  0  0  0  0  0  0  0  0  0  0  0
   17.9448   -8.5107    8.4072 C   0  0  0  0  0  0  0  0  0  0  0  0
   16.1139   -8.2110   14.7581 S   0  0  0  0  0  0  0  0  0  0  0  0
   14.8242   -7.9705   15.4925 O   0  0  0  0  0  0  0  0  0  0  0  0
   17.0118   -7.0196   14.9442 O   0  0  0  0  0  0  0  0  0  0  0  0
   17.1391   -9.7307   16.8372 C   0  0  0  0  0  0  0  0  0  0  0  0
   16.9065   -9.6366   15.4488 C   0  0  0  0  0  0  0  0  0  0  0  0
   17.3081  -10.6842   14.6096 C   0  0  0  0  0  0  0  0  0  0  0  0
   17.9357  -11.8155   15.1321 C   0  0  0  0  0  0  0  0  0  0  0  0
   18.3523  -12.9174   14.2267 C   0  0  0  0  0  0  0  0  0  0  0  0
   18.1684  -11.9108   16.5039 C   0  0  0  0  0  0  0  0  0  0  0  0
   17.7716  -10.8742   17.3507 C   0  0  0  0  0  0  0  0  0  0  0  0
   15.1604   -7.2352   19.0682 C   0  0  0  0  0  0  0  0  0  0  0  0
   15.3991   -8.4086   18.1883 C   0  0  0  0  0  0  0  0  0  0  0  0
   14.4348   -9.1607   17.8866 O   0  0  0  0  0  0  0  0  0  0  0  0
   16.7235   -8.6614   17.7027 N   0  0  0  0  0  0  0  0  0  0  0  0
   17.4247   -8.0345   17.9937 H   0  0  0  0  0  0  0  0  0  0  0  0
 30 31  1  0  0  0
 31 32  2  0  0  0
 31 33  1  0  0  0
 33 23  1  0  0  0
 23 24  2  0  0  0
 24 25  1  0  0  0
 24 20  1  0  0  0
 25 26  2  0  0  0
 26 27  1  0  0  0
 26 28  1  0  0  0
 28 29  2  0  0  0
 29 23  1  0  0  0
 20 21  2  0  0  0
 20 22  2  0  0  0
 20  1  1  0  0  0
  1  2  1  0  0  0
  2  3  1  0  0  0
  3  4  1  0  0  0
  4  5  1  0  0  0
  4  7  1  0  0  0
  5  6  1  0  0  0
  6  1  1  0  0  0
  7  8  2  0  0  0
  8  9  1  0  0  0
  9 10  2  0  0  0
 10 11  1  0  0  0
 11 12  2  0  0  0
 12 13  1  0  0  0
 13 14  2  0  0  0
 14 15  1  0  0  0
 14  9  1  0  0  0
 15 16  1  0  0  0
 16 17  2  0  0  0
 17 18  1  0  0  0
 18 19  2  0  0  0
 19  7  1  0  0  0
 19 15  1  0  0  0
 33 34  1  0  0  0
M  END
>  <minimizedAffinity>
18.99166

>  <minimizedRMSD>
1.74148

$$$$
ChemDiv-F046-0010 MCULE-2792067751 MolPort-010-678-433 PubChem-53003916 ZINC000035375338 ZINC35375338


 34 37  0  0  0  0  0  0  0  0999 V2000
   18.9024   -9.1607   12.5427 C   0  0  0  0  0  0  0  0  0  0  0  0
   17.8294   -8.7375   13.2662 N   0  0  0  0  0  0  0  0  0  0  0  0
   17.7980   -8.8107   14.5998 N   0  0  0  0  0  0  0  0  0  0  0  0
   18.8552   -9.3266   15.2959 C   0  0  0  0  0  0  0  0  0  0  0  0
   18.8266   -9.4044   16.5538 O   0  0  0  0  0  0  0  0  0  0  0  0
   19.9799   -9.7729   14.6069 C   0  0  0  0  0  0  0  0  0  0  0  0
   20.0051   -9.6901   13.2186 C   0  0  0  0  0  0  0  0  0  0  0  0
   19.1157   -7.6932    8.7361 N   0  0  0  0  0  0  0  0  0  0  0  0
   20.3396   -7.9804    9.4823 C   0  0  0  0  0  0  0  0  0  0  0  0
   20.1239   -9.2215   10.3428 C   0  0  0  0  0  0  0  0  0  0  0  0
   18.8889   -9.0670   11.1092 N   0  0  0  0  0  0  0  0  0  0  0  0
   17.6599   -8.7674   10.3743 C   0  0  0  0  0  0  0  0  0  0  0  0
   17.8803   -7.5335    9.5019 C   0  0  0  0  0  0  0  0  0  0  0  0
   18.2958   -9.0310    6.7974 C   0  0  0  0  0  0  0  0  0  0  0  0
   19.0641   -7.9615    7.3273 C   0  0  0  0  0  0  0  0  0  0  0  0
   19.7249   -7.0914    6.4455 C   0  0  0  0  0  0  0  0  0  0  0  0
   19.6090   -7.2515    5.0643 C   0  0  0  0  0  0  0  0  0  0  0  0
   18.8210   -8.2785    4.5463 C   0  0  0  0  0  0  0  0  0  0  0  0
   18.1675   -9.1596    5.4095 C   0  0  0  0  0  0  0  0  0  0  0  0
   16.3005   -9.9036    7.9940 C   0  0  0  0  0  0  0  0  0  0  0  0
   17.6609   -9.9923    7.5934 O   0  0  0  0  0  0  0  0  0  0  0  0
   16.5978   -8.3586   15.2929 C   0  0  0  0  0  0  0  0  0  0  0  0
   15.8442   -9.5302   15.8204 C   0  0  0  0  0  0  0  0  0  0  0  0
   14.5854   -9.4951   15.8557 O   0  0  0  0  0  0  0  0  0  0  0  0
   16.5609  -10.6779   16.2861 N   0  0  0  0  0  0  0  0  0  0  0  0
   17.5198  -10.5639   16.4779 H   0  0  0  0  0  0  0  0  0  0  0  0
   15.9990  -11.9791   16.4963 C   0  0  0  0  0  0  0  0  0  0  0  0
   16.7129  -13.1608   16.2090 C   0  0  0  0  0  0  0  0  0  0  0  0
   17.9883  -13.1188   15.7508 F   0  0  0  0  0  0  0  0  0  0  0  0
   16.1279  -14.4067   16.4563 C   0  0  0  0  0  0  0  0  0  0  0  0
   14.8414  -14.4862   16.9946 C   0  0  0  0  0  0  0  0  0  0  0  0
   14.2782  -15.6957   17.2281 F   0  0  0  0  0  0  0  0  0  0  0  0
   14.1431  -13.3182   17.3081 C   0  0  0  0  0  0  0  0  0  0  0  0
   14.7239  -12.0707   17.0656 C   0  0  0  0  0  0  0  0  0  0  0  0
 20 21  1  0  0  0
 21 14  1  0  0  0
 14 15  2  0  0  0
 15 16  1  0  0  0
 15  8  1  0  0  0
 16 17  2  0  0  0
 17 18  1  0  0  0
 18 19  2  0  0  0
 19 14  1  0  0  0
  8  9  1  0  0  0
  9 10  1  0  0  0
 10 11  1  0  0  0
 11 12  1  0  0  0
 11  1  1  0  0  0
 12 13  1  0  0  0
 13  8  1  0  0  0
  1  2  2  0  0  0
  2  3  1  0  0  0
  3 22  1  0  0  0
  3  4  1  0  0  0
 22 23  1  0  0  0
 23 24  2  0  0  0
 23 25  1  0  0  0
 25 27  1  0  0  0
 27 28  2  0  0  0
 28 29  1  0  0  0
 28 30  1  0  0  0
 30 31  2  0  0  0
 31 32  1  0  0  0
 31 33  1  0  0  0
 33 34  2  0  0  0
 34 27  1  0  0  0
  4  5  2  0  0  0
  4  6  1  0  0  0
  6  7  2  0  0  0
  7  1  1  0  0  0
 25 26  1  0  0  0
M  END
>  <minimizedAffinity>
19.83955

>  <minimizedRMSD>
2.58287

$$$$
ChemDiv-F844-0422 MCULE-8017595797 MolPort-010-652-687 PubChem-50787642 ZINC000035425880 ZINC35425880


 36 40  0  0  0  0  0  0  0  0999 V2000
   18.3940   -9.6247    9.6504 N   0  0  0  0  0  0  0  0  0  0  0  0
   17.3039   -9.0220    9.1910 N   0  0  0  0  0  0  0  0  0  0  0  0
   17.7133   -8.3017    8.1221 C   0  0  0  0  0  0  0  0  0  0  0  0
   19.0371   -8.4230    7.9095 N   0  0  0  0  0  0  0  0  0  0  0  0
   19.4383   -9.2565    8.8843 C   0  0  0  0  0  0  0  0  0  0  0  0
   20.6278   -9.6308    9.0696 O   0  0  0  0  0  0  0  0  0  0  0  0
   19.6909   -7.7711    6.9133 C   0  0  0  0  0  0  0  0  0  0  0  0
   21.0700   -7.9028    6.7021 C   0  0  0  0  0  0  0  0  0  0  0  0
   21.6816   -7.2001    5.6583 C   0  0  0  0  0  0  0  0  0  0  0  0
   20.9214   -6.3675    4.8285 C   0  0  0  0  0  0  0  0  0  0  0  0
   19.5444   -6.2320    5.0360 C   0  0  0  0  0  0  0  0  0  0  0  0
   18.9234   -6.9304    6.0753 C   0  0  0  0  0  0  0  0  0  0  0  0
   17.5791   -6.8068    6.2895 N   0  0  0  0  0  0  0  0  0  0  0  0
   16.9329   -7.4744    7.2952 C   0  0  0  0  0  0  0  0  0  0  0  0
   15.5129   -7.3020    7.4743 N   0  0  0  0  0  0  0  0  0  0  0  0
   14.8340   -6.1767    6.8389 C   0  0  0  0  0  0  0  0  0  0  0  0
   13.9201   -6.6869    5.7339 C   0  0  0  0  0  0  0  0  0  0  0  0
   12.6008   -7.7264    6.4444 S   0  0  0  0  0  0  0  0  0  0  0  0
   13.7608   -8.9607    7.1213 C   0  0  0  0  0  0  0  0  0  0  0  0
   14.6836   -8.3041    8.1371 C   0  0  0  0  0  0  0  0  0  0  0  0
   18.4314  -10.4415   10.8542 C   0  0  0  0  0  0  0  0  0  0  0  0
   17.6119  -10.3805   13.2376 N   0  0  0  0  0  0  0  0  0  0  0  0
   17.6626   -9.7741   11.9415 C   0  0  0  0  0  0  0  0  0  0  0  0
   17.0755   -8.6837   11.7078 O   0  0  0  0  0  0  0  0  0  0  0  0
   17.9611  -11.2978   13.3136 H   0  0  0  0  0  0  0  0  0  0  0  0
   16.1836   -8.6301   16.8333 C   0  0  0  0  0  0  0  0  0  0  0  0
   16.8277   -9.8713   16.8439 C   0  0  0  0  0  0  0  0  0  0  0  0
   17.2876  -10.4404   15.6531 C   0  0  0  0  0  0  0  0  0  0  0  0
   17.1015   -9.7802   14.4350 C   0  0  0  0  0  0  0  0  0  0  0  0
   16.4572   -8.5339   14.4218 C   0  0  0  0  0  0  0  0  0  0  0  0
   16.0006   -7.9637   15.6127 C   0  0  0  0  0  0  0  0  0  0  0  0
   14.1499   -7.0101   19.7199 C   0  0  0  0  0  0  0  0  0  0  0  0
   14.4321   -7.5570   18.3672 C   0  0  0  0  0  0  0  0  0  0  0  0
   13.5215   -7.5523   17.4974 O   0  0  0  0  0  0  0  0  0  0  0  0
   15.7374   -8.0746   18.0776 N   0  0  0  0  0  0  0  0  0  0  0  0
   16.3957   -8.0456   18.8091 H   0  0  0  0  0  0  0  0  0  0  0  0
 32 33  1  0  0  0
 33 34  2  0  0  0
 33 35  1  0  0  0
 35 26  1  0  0  0
 26 27  2  0  0  0
 27 28  1  0  0  0
 28 29  2  0  0  0
 29 22  1  0  0  0
 29 30  1  0  0  0
 22 23  1  0  0  0
 23 24  2  0  0  0
 23 21  1  0  0  0
 21  1  1  0  0  0
  1  2  1  0  0  0
  2  3  2  0  0  0
  3  4  1  0  0  0
  4  5  1  0  0  0
  4  7  1  0  0  0
  5  6  2  0  0  0
  5  1  1  0  0  0
  7  8  2  0  0  0
  8  9  1  0  0  0
  9 10  2  0  0  0
 10 11  1  0  0  0
 11 12  2  0  0  0
 12 13  1  0  0  0
 12  7  1  0  0  0
 13 14  2  0  0  0
 14 15  1  0  0  0
 14  3  1  0  0  0
 15 16  1  0  0  0
 16 17  1  0  0  0
 17 18  1  0  0  0
 18 19  1  0  0  0
 19 20  1  0  0  0
 20 15  1  0  0  0
 30 31  2  0  0  0
 31 26  1  0  0  0
 35 36  1  0  0  0
 22 25  1  0  0  0
M  END
>  <minimizedAffinity>
21.83836

>  <minimizedRMSD>
1.68593

$$$$
ChemDiv-S021-0957 MolPort-010-942-325 PubChem-53183863 ZINC000097123858


 33 38  0  0  0  0  0  0  0  0999 V2000
   16.4504  -12.1113   10.4591 O   0  0  0  0  0  0  0  0  0  0  0  0
   16.6286  -10.8632   10.4588 C   0  0  0  0  0  0  0  0  0  0  0  0
   16.5800  -10.1393   11.6995 N   0  0  0  0  0  0  0  0  0  0  0  0
   16.2176   -8.7175   11.7009 C   0  0  0  0  0  0  0  0  0  0  0  0
   15.2737   -8.4168   12.8544 C   0  0  0  0  0  0  0  0  0  0  0  0
   15.9251   -8.8305   14.1351 C   0  0  0  0  0  0  0  0  0  0  0  0
   16.7059  -10.0109   14.1766 C   0  0  0  0  0  0  0  0  0  0  0  0
   16.8739  -10.8612   12.9475 C   0  0  0  0  0  0  0  0  0  0  0  0
   17.3032  -10.3991   15.3412 N   0  0  0  0  0  0  0  0  0  0  0  0
   17.1503   -9.6304   16.4469 C   0  0  0  0  0  0  0  0  0  0  0  0
   17.6759   -9.8532   17.7010 C   0  0  0  0  0  0  0  0  0  0  0  0
   17.1891   -8.7445   18.4069 C   0  0  0  0  0  0  0  0  0  0  0  0
   16.4371   -7.9412   17.6149 N   0  0  0  0  0  0  0  0  0  0  0  0
   16.4300   -8.5054   16.4233 N   0  0  0  0  0  0  0  0  0  0  0  0
   15.8034   -8.0618   15.3055 C   0  0  0  0  0  0  0  0  0  0  0  0
   15.1321   -6.9945   15.3231 O   0  0  0  0  0  0  0  0  0  0  0  0
   15.9873   -7.1054   17.8767 H   0  0  0  0  0  0  0  0  0  0  0  0
   16.8412  -10.1798    9.1648 C   0  0  0  0  0  0  0  0  0  0  0  0
   17.8961   -9.2636    8.9542 C   0  0  0  0  0  0  0  0  0  0  0  0
   18.8371   -8.9644    9.9527 C   0  0  0  0  0  0  0  0  0  0  0  0
   19.8701   -8.0570    9.7035 C   0  0  0  0  0  0  0  0  0  0  0  0
   19.9789   -7.4452    8.4520 C   0  0  0  0  0  0  0  0  0  0  0  0
   19.0599   -7.7450    7.4430 C   0  0  0  0  0  0  0  0  0  0  0  0
   18.0256   -8.6536    7.6844 C   0  0  0  0  0  0  0  0  0  0  0  0
   17.1322   -8.9726    6.6639 C   0  0  0  0  0  0  0  0  0  0  0  0
   16.1209   -9.9002    6.9084 C   0  0  0  0  0  0  0  0  0  0  0  0
   16.0031  -10.4785    8.1331 N   0  0  0  0  0  0  0  0  0  0  0  0
   17.4482   -8.4657   19.8299 C   0  0  0  0  0  0  0  0  0  0  0  0
   18.2349   -9.3384   20.5964 C   0  0  0  0  0  0  0  0  0  0  0  0
   18.4778   -9.0692   21.9465 C   0  0  0  0  0  0  0  0  0  0  0  0
   17.9360   -7.9256   22.5395 C   0  0  0  0  0  0  0  0  0  0  0  0
   17.1513   -7.0512   21.7828 C   0  0  0  0  0  0  0  0  0  0  0  0
   16.9083   -7.3203   20.4327 C   0  0  0  0  0  0  0  0  0  0  0  0
  1  2  2  0  0  0
  2  3  1  0  0  0
  3  4  1  0  0  0
  4  5  1  0  0  0
  5  6  1  0  0  0
  6  7  2  0  0  0
  7  8  1  0  0  0
  7  9  1  0  0  0
  9 10  2  0  0  0
 10 11  1  0  0  0
 11 12  2  0  0  0
 12 13  1  0  0  0
 13 14  1  0  0  0
 14 15  1  0  0  0
 15 16  2  0  0  0
 12 28  1  0  0  0
 28 29  2  0  0  0
 29 30  1  0  0  0
 30 31  2  0  0  0
 31 32  1  0  0  0
 32 33  2  0  0  0
  2 18  1  0  0  0
 18 19  1  0  0  0
 19 20  2  0  0  0
 20 21  1  0  0  0
 21 22  2  0  0  0
 22 23  1  0  0  0
 23 24  2  0  0  0
 24 25  1  0  0  0
 25 26  2  0  0  0
 26 27  1  0  0  0
  8  3  1  0  0  0
 14 10  1  0  0  0
 33 28  1  0  0  0
 27 18  2  0  0  0
 15  6  1  0  0  0
 24 19  1  0  0  0
 13 17  1  0  0  0
M  END
>  <minimizedAffinity>
26.88322

>  <minimizedRMSD>
0.66410

$$$$
ChemDiv-S022-1711 MolPort-035-696-266 ZINC000097942126 ZINC97942126


 36 41  0  0  0  0  0  0  0  0999 V2000
   14.0440   -9.7543   11.3392 C   0  0  0  0  0  0  0  0  0  0  0  0
   13.0281   -9.0151   11.4443 O   0  0  0  0  0  0  0  0  0  0  0  0
   15.1410   -9.6066   12.2529 N   0  0  0  0  0  0  0  0  0  0  0  0
   16.3786  -10.3531   12.0610 C   0  0  0  0  0  0  0  0  0  0  0  0
   16.7871  -11.0259   13.3671 C   0  0  0  0  0  0  0  0  0  0  0  0
   16.6396  -10.1195   14.5572 C   0  0  0  0  0  0  0  0  0  0  0  0
   15.8292   -8.9502   14.5073 C   0  0  0  0  0  0  0  0  0  0  0  0
   15.1351   -8.5305   13.2391 C   0  0  0  0  0  0  0  0  0  0  0  0
   15.7190   -8.1641   15.6690 C   0  0  0  0  0  0  0  0  0  0  0  0
   15.0278   -7.1093   15.6834 O   0  0  0  0  0  0  0  0  0  0  0  0
   16.3779   -8.5728   16.7810 N   0  0  0  0  0  0  0  0  0  0  0  0
   16.3978   -7.9849   17.9610 N   0  0  0  0  0  0  0  0  0  0  0  0
   17.1819   -8.7569   18.7527 C   0  0  0  0  0  0  0  0  0  0  0  0
   17.6765   -9.8694   18.0585 C   0  0  0  0  0  0  0  0  0  0  0  0
   17.1212   -9.6812   16.8114 C   0  0  0  0  0  0  0  0  0  0  0  0
   17.2646  -10.4694   15.7195 N   0  0  0  0  0  0  0  0  0  0  0  0
   15.9364   -7.1533   18.2156 H   0  0  0  0  0  0  0  0  0  0  0  0
   17.4640   -8.4449   20.1643 C   0  0  0  0  0  0  0  0  0  0  0  0
   16.9126   -7.2994   20.7560 C   0  0  0  0  0  0  0  0  0  0  0  0
   17.1774   -6.9988   22.0955 C   0  0  0  0  0  0  0  0  0  0  0  0
   17.9954   -7.8418   22.8525 C   0  0  0  0  0  0  0  0  0  0  0  0
   18.5489   -8.9854   22.2704 C   0  0  0  0  0  0  0  0  0  0  0  0
   18.2843   -9.2861   20.9310 C   0  0  0  0  0  0  0  0  0  0  0  0
   14.0833  -10.7871   10.2555 C   0  0  0  0  0  0  0  0  0  0  0  0
   14.1814  -10.1365    8.8825 C   0  0  0  0  0  0  0  0  0  0  0  0
   21.5214   -8.7930    7.6896 Cl  0  0  0  0  0  0  0  0  0  0  0  0
   19.8274   -8.5757    8.0711 C   0  0  0  0  0  0  0  0  0  0  0  0
   19.3562   -7.3057    8.4740 C   0  0  0  0  0  0  0  0  0  0  0  0
   17.9977   -7.1125    8.7864 C   0  0  0  0  0  0  0  0  0  0  0  0
   17.1540   -8.2148    8.6785 C   0  0  0  0  0  0  0  0  0  0  0  0
   15.8395   -8.2666    8.9336 N   0  0  0  0  0  0  0  0  0  0  0  0
   15.5436   -9.5664    8.6709 C   0  0  0  0  0  0  0  0  0  0  0  0
   16.6018  -10.3247    8.2820 N   0  0  0  0  0  0  0  0  0  0  0  0
   17.6073   -9.4388    8.2908 C   0  0  0  0  0  0  0  0  0  0  0  0
   18.9444   -9.6676    7.9767 C   0  0  0  0  0  0  0  0  0  0  0  0
   15.2403   -7.5458    9.2349 H   0  0  0  0  0  0  0  0  0  0  0  0
 26 27  1  0  0  0
 27 28  2  0  0  0
 28 29  1  0  0  0
 29 30  2  0  0  0
 30 31  1  0  0  0
 31 32  1  0  0  0
 32 25  1  0  0  0
 32 33  2  0  0  0
 25 24  1  0  0  0
 24  1  1  0  0  0
  1  2  2  0  0  0
  1  3  1  0  0  0
  3  4  1  0  0  0
  4  5  1  0  0  0
  5  6  1  0  0  0
  6  7  2  0  0  0
  7  8  1  0  0  0
  7  9  1  0  0  0
  8  3  1  0  0  0
  9 10  2  0  0  0
  9 11  1  0  0  0
 11 12  1  0  0  0
 12 13  1  0  0  0
 13 14  2  0  0  0
 13 18  1  0  0  0
 14 15  1  0  0  0
 15 16  2  0  0  0
 15 11  1  0  0  0
 16  6  1  0  0  0
 18 19  2  0  0  0
 19 20  1  0  0  0
 20 21  2  0  0  0
 21 22  1  0  0  0
 22 23  2  0  0  0
 23 18  1  0  0  0
 33 34  1  0  0  0
 34 35  2  0  0  0
 34 30  1  0  0  0
 35 27  1  0  0  0
 31 36  1  0  0  0
 12 17  1  0  0  0
M  END
>  <minimizedAffinity>
35.40171

>  <minimizedRMSD>
0.56604

$$$$
